/content/1PQ6_Docking/DOCKING/CLC-0000193/CLC-0000193_output.pdbqt
 OpenBabel03072503353D

 37 40  0  0  1  0  0  0  0  0999 V2000
   18.6250   -4.8580   59.8280 N   0  0  0  0  0  0  0  0  0  0  0  0
   18.8110   -6.4560   59.0350 S   0  0  0  0  0  0  0  0  0  0  0  0
   19.5600   -7.3310   60.0500 O   0  0  0  0  0  0  0  0  0  0  0  0
   17.4210   -7.1110   59.0090 O   0  0  0  0  0  0  0  0  0  0  0  0
   19.6850   -6.5880   57.4830 C   0  0  0  0  0  0  0  0  0  0  0  0
   21.0500   -6.5700   57.3170 C   0  0  0  0  0  3  0  0  0  0  0  0
   21.2940   -6.6530   55.9980 N   0  0  0  0  0  0  0  0  0  0  0  0
   22.5950   -6.6720   55.3420 C   0  0  0  0  0  1  0  0  0  0  0  0
   20.0910   -6.7130   55.3930 C   0  0  0  0  0  3  0  0  0  0  0  0
   19.0770   -6.6700   56.2820 N   0  0  0  0  0  0  0  0  0  0  0  0
   18.0240   -3.8500   58.9070 C   0  0  0  0  0  2  0  0  0  0  0  0
   16.5480   -3.5060   59.1540 C   0  0  0  0  0  0  0  0  0  0  0  0
   16.0480   -2.1780   59.3170 C   0  0  0  0  0  0  0  0  0  0  0  0
   16.8870   -0.9200   59.2900 C   0  0  0  0  0  1  0  0  0  0  0  0
   14.6720   -1.9740   59.5500 C   0  0  0  0  0  3  0  0  0  0  0  0
   13.7550   -3.0400   59.6540 C   0  0  0  0  0  0  0  0  0  0  0  0
   14.2770   -4.3400   59.5280 C   0  0  0  0  0  3  0  0  0  0  0  0
   15.6310   -4.5590   59.2910 C   0  0  0  0  0  3  0  0  0  0  0  0
   12.2770   -2.8020   59.9080 C   0  0  0  0  0  0  0  0  0  0  0  0
   11.4390   -3.8300   60.4110 C   0  0  0  0  0  3  0  0  0  0  0  0
   10.0790   -3.6080   60.6430 C   0  0  0  0  0  3  0  0  0  0  0  0
    9.5140   -2.3640   60.3800 C   0  0  0  0  0  3  0  0  0  0  0  0
   10.3060   -1.3310   59.8850 C   0  0  0  0  0  0  0  0  0  0  0  0
   11.6720   -1.5460   59.6500 C   0  0  0  0  0  3  0  0  0  0  0  0
    9.5680    0.2680   59.5340 S   0  0  0  0  0  0  0  0  0  0  0  0
   10.3090    0.8650   58.3260 O   0  0  0  0  0  0  0  0  0  0  0  0
    7.7960    0.5760   59.2990 C   0  0  0  0  0  1  0  0  0  0  0  0
   10.0680    1.2460   60.6080 O   0  0  0  0  0  0  0  0  0  0  0  0
   18.1140   -4.8940   61.2330 C   0  0  1  0  0  3  0  0  0  0  0  0
   18.2030   -6.2880   61.8850 C   0  0  0  0  0  1  0  0  0  0  0  0
   18.8810   -3.9260   62.1220 C   0  0  0  0  0  0  0  0  0  0  0  0
   18.3520   -2.7730   62.7290 C   0  0  0  0  0  0  0  0  0  0  0  0
   16.9480   -2.2530   62.6770 C   0  0  0  0  0  1  0  0  0  0  0  0
   19.5710   -2.0120   63.6050 S   0  0  0  0  0  0  0  0  0  0  0  0
   20.7730   -3.1220   63.2320 C   0  0  0  0  0  0  0  0  0  0  0  0
   22.1870   -3.0550   63.7040 C   0  0  0  0  0  1  0  0  0  0  0  0
   20.2440   -4.1090   62.4140 C   0  0  0  0  0  3  0  0  0  0  0  0
  1 29  1  0  0  0  0
  2  1  1  0  0  0  0
  2  3  2  0  0  0  0
  4  2  2  0  0  0  0
  5  2  1  0  0  0  0
  6  5  2  0  0  0  0
  7  6  1  0  0  0  0
  8  7  1  0  0  0  0
  9  7  1  0  0  0  0
  9 10  2  0  0  0  0
 10  5  1  0  0  0  0
 11 12  1  0  0  0  0
 11  1  1  0  0  0  0
 12 18  2  0  0  0  0
 12 13  1  0  0  0  0
 13 15  2  0  0  0  0
 14 13  1  0  0  0  0
 15 16  1  0  0  0  0
 16 19  1  0  0  0  0
 17 16  2  0  0  0  0
 18 17  1  0  0  0  0
 19 20  1  0  0  0  0
 20 21  2  0  0  0  0
 22 21  1  0  0  0  0
 23 22  2  0  0  0  0
 24 23  1  0  0  0  0
 24 19  2  0  0  0  0
 25 23  1  0  0  0  0
 25 28  2  0  0  0  0
 26 25  2  0  0  0  0
 27 25  1  0  0  0  0
 29 30  1  1  0  0  0
 29 31  1  0  0  0  0
 31 37  1  0  0  0  0
 31 32  2  0  0  0  0
 32 34  1  0  0  0  0
 33 32  1  0  0  0  0
 35 34  1  0  0  0  0
 35 36  1  0  0  0  0
 37 35  2  0  0  0  0
M  END
>  <POSE>
1

>  <SCORE>
-11.834

>  <RMSD_LB_BP>
0.000

>  <RMSD_UB_BP>
0.000

$$$$
/content/1PQ6_Docking/DOCKING/CLC-0000193/CLC-0000193_output.pdbqt
 OpenBabel03072503353D

 37 40  0  0  1  0  0  0  0  0999 V2000
   17.9490   -3.9430   59.0560 N   0  0  0  0  0  0  0  0  0  0  0  0
   18.1250   -5.2900   57.8840 S   0  0  0  0  0  0  0  0  0  0  0  0
   17.2780   -6.4390   58.4520 O   0  0  0  0  0  0  0  0  0  0  0  0
   17.3340   -4.9000   56.6260 O   0  0  0  0  0  0  0  0  0  0  0  0
   19.7410   -5.9580   57.5240 C   0  0  0  0  0  0  0  0  0  0  0  0
   20.4520   -5.7780   56.3600 C   0  0  0  0  0  3  0  0  0  0  0  0
   21.5940   -6.4760   56.4770 N   0  0  0  0  0  0  0  0  0  0  0  0
   22.6650   -6.5840   55.4950 C   0  0  0  0  0  1  0  0  0  0  0  0
   21.5570   -7.0640   57.6900 C   0  0  0  0  0  3  0  0  0  0  0  0
   20.4240   -6.7680   58.3590 N   0  0  0  0  0  0  0  0  0  0  0  0
   17.1680   -4.3560   60.2590 C   0  0  0  0  0  2  0  0  0  0  0  0
   15.6740   -3.9970   60.2480 C   0  0  0  0  0  0  0  0  0  0  0  0
   14.6510   -4.7940   60.8470 C   0  0  0  0  0  0  0  0  0  0  0  0
   14.8740   -6.1090   61.5610 C   0  0  0  0  0  1  0  0  0  0  0  0
   13.3070   -4.3760   60.7710 C   0  0  0  0  0  3  0  0  0  0  0  0
   12.9170   -3.1980   60.1000 C   0  0  0  0  0  0  0  0  0  0  0  0
   13.9370   -2.4500   59.4860 C   0  0  0  0  0  3  0  0  0  0  0  0
   15.2700   -2.8450   59.5570 C   0  0  0  0  0  3  0  0  0  0  0  0
   11.4630   -2.7640   60.0260 C   0  0  0  0  0  0  0  0  0  0  0  0
   10.4060   -3.6840   60.2490 C   0  0  0  0  0  3  0  0  0  0  0  0
    9.0700   -3.2830   60.1790 C   0  0  0  0  0  3  0  0  0  0  0  0
    8.7450   -1.9620   59.8850 C   0  0  0  0  0  3  0  0  0  0  0  0
    9.7570   -1.0310   59.6600 C   0  0  0  0  0  0  0  0  0  0  0  0
   11.1010   -1.4260   59.7290 C   0  0  0  0  0  3  0  0  0  0  0  0
    9.3330    0.6690   59.2660 S   0  0  0  0  0  0  0  0  0  0  0  0
   10.2360    1.1140   58.1030 O   0  0  0  0  0  0  0  0  0  0  0  0
    7.6590    1.2800   58.9270 C   0  0  0  0  0  1  0  0  0  0  0  0
    9.9350    1.5550   60.3670 O   0  0  0  0  0  0  0  0  0  0  0  0
   19.1800   -3.1260   59.2840 C   0  0  1  0  0  3  0  0  0  0  0  0
   19.3840   -2.0140   58.2370 C   0  0  0  0  0  1  0  0  0  0  0  0
   19.1530   -2.4630   60.6530 C   0  0  0  0  0  0  0  0  0  0  0  0
   18.4960   -1.2600   60.9710 C   0  0  0  0  0  0  0  0  0  0  0  0
   17.6660   -0.3880   60.0790 C   0  0  0  0  0  1  0  0  0  0  0  0
   18.7520   -0.9140   62.5980 S   0  0  0  0  0  0  0  0  0  0  0  0
   19.6880   -2.2700   62.9190 C   0  0  0  0  0  0  0  0  0  0  0  0
   20.2860   -2.6120   64.2430 C   0  0  0  0  0  1  0  0  0  0  0  0
   19.8190   -3.0190   61.7600 C   0  0  0  0  0  3  0  0  0  0  0  0
  1 29  1  0  0  0  0
  1 11  1  0  0  0  0
  2  3  2  0  0  0  0
  2  1  1  0  0  0  0
  4  2  2  0  0  0  0
  5  2  1  0  0  0  0
  5 10  1  0  0  0  0
  6  7  1  0  0  0  0
  6  5  2  0  0  0  0
  7  9  1  0  0  0  0
  8  7  1  0  0  0  0
  9 10  2  0  0  0  0
 12 11  1  0  0  0  0
 12 13  1  0  0  0  0
 13 14  1  0  0  0  0
 15 13  2  0  0  0  0
 16 15  1  0  0  0  0
 17 18  1  0  0  0  0
 17 16  2  0  0  0  0
 18 12  2  0  0  0  0
 19 16  1  0  0  0  0
 19 20  1  0  0  0  0
 21 20  2  0  0  0  0
 22 21  1  0  0  0  0
 23 24  1  0  0  0  0
 23 22  2  0  0  0  0
 24 19  2  0  0  0  0
 25 23  1  0  0  0  0
 25 28  2  0  0  0  0
 26 25  2  0  0  0  0
 27 25  1  0  0  0  0
 29 30  1  6  0  0  0
 29 31  1  0  0  0  0
 31 32  2  0  0  0  0
 31 37  1  0  0  0  0
 32 34  1  0  0  0  0
 33 32  1  0  0  0  0
 34 35  1  0  0  0  0
 35 36  1  0  0  0  0
 37 35  2  0  0  0  0
M  END
>  <POSE>
2

>  <SCORE>
-11.519

>  <RMSD_LB_BP>
1.431

>  <RMSD_UB_BP>
2.255

$$$$
/content/1PQ6_Docking/DOCKING/CLC-0000193/CLC-0000193_output.pdbqt
 OpenBabel03072503353D

 37 40  0  0  1  0  0  0  0  0999 V2000
   17.6840   -3.6310   60.5550 N   0  0  0  0  0  0  0  0  0  0  0  0
   18.2360   -2.0880   61.2840 S   0  0  0  0  0  0  0  0  0  0  0  0
   19.1990   -1.4730   60.2570 O   0  0  0  0  0  0  0  0  0  0  0  0
   17.0480   -1.1150   61.2340 O   0  0  0  0  0  0  0  0  0  0  0  0
   19.0810   -2.0930   62.8570 C   0  0  0  0  0  0  0  0  0  0  0  0
   20.3010   -2.6720   63.1200 C   0  0  0  0  0  3  0  0  0  0  0  0
   20.5580   -2.4870   64.4260 N   0  0  0  0  0  0  0  0  0  0  0  0
   21.7370   -2.9240   65.1630 C   0  0  0  0  0  1  0  0  0  0  0  0
   19.5030   -1.8150   64.9290 C   0  0  0  0  0  3  0  0  0  0  0  0
   18.5720   -1.5610   63.9870 N   0  0  0  0  0  0  0  0  0  0  0  0
   16.8850   -3.4020   59.3160 C   0  0  0  0  0  2  0  0  0  0  0  0
   15.3740   -3.2080   59.5140 C   0  0  0  0  0  0  0  0  0  0  0  0
   14.4930   -4.2160   60.0120 C   0  0  0  0  0  0  0  0  0  0  0  0
   14.9010   -5.6190   60.3990 C   0  0  0  0  0  1  0  0  0  0  0  0
   13.1170   -3.9350   60.1460 C   0  0  0  0  0  3  0  0  0  0  0  0
   12.5590   -2.6910   59.7850 C   0  0  0  0  0  0  0  0  0  0  0  0
   13.4410   -1.7290   59.2620 C   0  0  0  0  0  3  0  0  0  0  0  0
   14.8020   -1.9860   59.1290 C   0  0  0  0  0  3  0  0  0  0  0  0
   11.0750   -2.4070   59.9340 C   0  0  0  0  0  0  0  0  0  0  0  0
   10.1890   -3.3730   60.4780 C   0  0  0  0  0  3  0  0  0  0  0  0
    8.8240   -3.1100   60.6130 C   0  0  0  0  0  3  0  0  0  0  0  0
    8.2990   -1.8860   60.2110 C   0  0  0  0  0  3  0  0  0  0  0  0
    9.1390   -0.9130   59.6720 C   0  0  0  0  0  0  0  0  0  0  0  0
   10.5110   -1.1700   59.5340 C   0  0  0  0  0  3  0  0  0  0  0  0
    8.4550    0.6600   59.1420 S   0  0  0  0  0  0  0  0  0  0  0  0
    9.0650    1.7540   60.0330 O   0  0  0  0  0  0  0  0  0  0  0  0
    8.4480    1.2790   57.4370 C   0  0  0  0  0  1  0  0  0  0  0  0
    7.0110    0.7270   59.6630 O   0  0  0  0  0  0  0  0  0  0  0  0
   18.7010   -4.7270   60.5240 C   0  0  1  0  0  3  0  0  0  0  0  0
   18.4650   -5.8180   61.5860 C   0  0  0  0  0  1  0  0  0  0  0  0
   18.7280   -5.4120   59.1660 C   0  0  0  0  0  0  0  0  0  0  0  0
   19.1160   -4.8160   57.9520 C   0  0  0  0  0  0  0  0  0  0  0  0
   19.6100   -3.4220   57.7140 C   0  0  0  0  0  1  0  0  0  0  0  0
   18.9730   -5.9520   56.7190 S   0  0  0  0  0  0  0  0  0  0  0  0
   18.4250   -7.2020   57.6950 C   0  0  0  0  0  0  0  0  0  0  0  0
   18.0790   -8.5760   57.2260 C   0  0  0  0  0  1  0  0  0  0  0  0
   18.3420   -6.7550   59.0050 C   0  0  0  0  0  3  0  0  0  0  0  0
  1  2  1  0  0  0  0
  2  5  1  0  0  0  0
  3  2  2  0  0  0  0
  4  2  2  0  0  0  0
  5  6  2  0  0  0  0
  5 10  1  0  0  0  0
  6  7  1  0  0  0  0
  7  9  1  0  0  0  0
  7  8  1  0  0  0  0
 10  9  2  0  0  0  0
 11 12  1  0  0  0  0
 11  1  1  0  0  0  0
 12 13  1  0  0  0  0
 13 15  2  0  0  0  0
 13 14  1  0  0  0  0
 16 19  1  0  0  0  0
 16 15  1  0  0  0  0
 17 16  2  0  0  0  0
 18 17  1  0  0  0  0
 18 12  2  0  0  0  0
 19 20  1  0  0  0  0
 20 21  2  0  0  0  0
 22 21  1  0  0  0  0
 23 22  2  0  0  0  0
 24 23  1  0  0  0  0
 24 19  2  0  0  0  0
 25 28  2  0  0  0  0
 25 23  1  0  0  0  0
 25 26  2  0  0  0  0
 27 25  1  0  0  0  0
 29  1  1  0  0  0  0
 29 30  1  1  0  0  0
 31 29  1  0  0  0  0
 32 31  2  0  0  0  0
 33 32  1  0  0  0  0
 34 35  1  0  0  0  0
 34 32  1  0  0  0  0
 35 37  2  0  0  0  0
 36 35  1  0  0  0  0
 37 31  1  0  0  0  0
M  END
>  <POSE>
3

>  <SCORE>
-11.349

>  <RMSD_LB_BP>
2.569

>  <RMSD_UB_BP>
5.188

$$$$
/content/1PQ6_Docking/DOCKING/CLC-0000193/CLC-0000193_output.pdbqt
 OpenBabel03072503353D

 37 40  0  0  1  0  0  0  0  0999 V2000
   18.3770   -4.5470   58.9920 N   0  0  0  0  0  0  0  0  0  0  0  0
   18.4710   -2.8440   59.5490 S   0  0  0  0  0  0  0  0  0  0  0  0
   19.7570   -2.2810   58.9260 O   0  0  0  0  0  0  0  0  0  0  0  0
   17.3810   -2.0630   58.7980 O   0  0  0  0  0  0  0  0  0  0  0  0
   18.5280   -2.4750   61.2950 C   0  0  0  0  0  0  0  0  0  0  0  0
   19.6240   -2.6090   62.1160 C   0  0  0  0  0  3  0  0  0  0  0  0
   19.2370   -2.2690   63.3570 N   0  0  0  0  0  0  0  0  0  0  0  0
   20.0570   -2.2530   64.5620 C   0  0  0  0  0  1  0  0  0  0  0  0
   17.9320   -1.9440   63.2720 C   0  0  0  0  0  3  0  0  0  0  0  0
   17.4630   -2.0660   62.0140 N   0  0  0  0  0  0  0  0  0  0  0  0
   17.4640   -5.3580   59.8480 C   0  0  0  0  0  2  0  0  0  0  0  0
   16.0350   -4.8190   60.0100 C   0  0  0  0  0  0  0  0  0  0  0  0
   15.2800   -4.8950   61.2200 C   0  0  0  0  0  0  0  0  0  0  0  0
   15.7560   -5.5270   62.5090 C   0  0  0  0  0  1  0  0  0  0  0  0
   13.9690   -4.3770   61.2580 C   0  0  0  0  0  3  0  0  0  0  0  0
   13.3510   -3.7960   60.1300 C   0  0  0  0  0  0  0  0  0  0  0  0
   14.1010   -3.7670   58.9410 C   0  0  0  0  0  3  0  0  0  0  0  0
   15.3990   -4.2690   58.8880 C   0  0  0  0  0  3  0  0  0  0  0  0
   11.9380   -3.2450   60.1890 C   0  0  0  0  0  0  0  0  0  0  0  0
   10.8440   -4.0570   60.5840 C   0  0  0  0  0  3  0  0  0  0  0  0
    9.5440   -3.5480   60.6350 C   0  0  0  0  0  3  0  0  0  0  0  0
    9.2930   -2.2220   60.2950 C   0  0  0  0  0  3  0  0  0  0  0  0
   10.3430   -1.3950   59.9020 C   0  0  0  0  0  0  0  0  0  0  0  0
   11.6500   -1.8990   59.8480 C   0  0  0  0  0  3  0  0  0  0  0  0
   10.0110    0.3110   59.4490 S   0  0  0  0  0  0  0  0  0  0  0  0
   11.1490    0.7750   58.5260 O   0  0  0  0  0  0  0  0  0  0  0  0
    8.4530    0.9270   58.7540 C   0  0  0  0  0  1  0  0  0  0  0  0
   10.3470    1.1790   60.6710 O   0  0  0  0  0  0  0  0  0  0  0  0
   18.2770   -4.7330   57.5110 C   0  0  1  0  0  3  0  0  0  0  0  0
   18.6110   -3.4630   56.7060 C   0  0  0  0  0  1  0  0  0  0  0  0
   19.2100   -5.8350   57.0330 C   0  0  0  0  0  0  0  0  0  0  0  0
   18.9360   -7.2140   57.0610 C   0  0  0  0  0  0  0  0  0  0  0  0
   17.6910   -7.9080   57.5240 C   0  0  0  0  0  1  0  0  0  0  0  0
   20.2620   -8.0450   56.4420 S   0  0  0  0  0  0  0  0  0  0  0  0
   21.1910   -6.6830   56.1310 C   0  0  0  0  0  0  0  0  0  0  0  0
   22.5640   -6.6900   55.5450 C   0  0  0  0  0  1  0  0  0  0  0  0
   20.4830   -5.5520   56.5060 C   0  0  0  0  0  3  0  0  0  0  0  0
  1  2  1  0  0  0  0
  1 11  1  0  0  0  0
  2  5  1  0  0  0  0
  3  2  2  0  0  0  0
  4  2  2  0  0  0  0
  5 10  1  0  0  0  0
  5  6  2  0  0  0  0
  6  7  1  0  0  0  0
  7  8  1  0  0  0  0
  9  7  1  0  0  0  0
 10  9  2  0  0  0  0
 11 12  1  0  0  0  0
 12 13  1  0  0  0  0
 13 15  2  0  0  0  0
 13 14  1  0  0  0  0
 16 19  1  0  0  0  0
 16 15  1  0  0  0  0
 17 16  2  0  0  0  0
 18 17  1  0  0  0  0
 18 12  2  0  0  0  0
 19 20  1  0  0  0  0
 20 21  2  0  0  0  0
 22 21  1  0  0  0  0
 23 22  2  0  0  0  0
 24 23  1  0  0  0  0
 24 19  2  0  0  0  0
 25 23  1  0  0  0  0
 25 28  2  0  0  0  0
 26 25  2  0  0  0  0
 27 25  1  0  0  0  0
 29 30  1  6  0  0  0
 29  1  1  0  0  0  0
 31 32  2  0  0  0  0
 31 29  1  0  0  0  0
 32 33  1  0  0  0  0
 34 32  1  0  0  0  0
 35 34  1  0  0  0  0
 35 37  2  0  0  0  0
 36 35  1  0  0  0  0
 37 31  1  0  0  0  0
M  END
>  <POSE>
4

>  <SCORE>
-10.633

>  <RMSD_LB_BP>
2.168

>  <RMSD_UB_BP>
5.194

$$$$
/content/1PQ6_Docking/DOCKING/CLC-0000193/CLC-0000193_output.pdbqt
 OpenBabel03072503353D

 37 40  0  0  1  0  0  0  0  0999 V2000
   17.9140   -6.2530   59.3460 N   0  0  0  0  0  0  0  0  0  0  0  0
   18.2870   -7.4930   58.1050 S   0  0  0  0  0  0  0  0  0  0  0  0
   18.8950   -8.6740   58.8770 O   0  0  0  0  0  0  0  0  0  0  0  0
   16.9460   -8.0750   57.6310 O   0  0  0  0  0  0  0  0  0  0  0  0
   19.4050   -7.1110   56.7650 C   0  0  0  0  0  0  0  0  0  0  0  0
   20.4650   -7.8820   56.3490 C   0  0  0  0  0  3  0  0  0  0  0  0
   21.0710   -7.2220   55.3480 N   0  0  0  0  0  0  0  0  0  0  0  0
   22.2410   -7.6500   54.5910 C   0  0  0  0  0  1  0  0  0  0  0  0
   20.3830   -6.0750   55.1790 C   0  0  0  0  0  3  0  0  0  0  0  0
   19.3520   -5.9740   56.0420 N   0  0  0  0  0  0  0  0  0  0  0  0
   16.6050   -6.5150   60.0130 C   0  0  0  0  0  2  0  0  0  0  0  0
   15.5910   -5.3620   59.9830 C   0  0  0  0  0  0  0  0  0  0  0  0
   14.5700   -5.1630   60.9620 C   0  0  0  0  0  0  0  0  0  0  0  0
   14.3210   -6.0570   62.1570 C   0  0  0  0  0  1  0  0  0  0  0  0
   13.6830   -4.0750   60.8350 C   0  0  0  0  0  3  0  0  0  0  0  0
   13.7430   -3.1710   59.7540 C   0  0  0  0  0  0  0  0  0  0  0  0
   14.7320   -3.4100   58.7820 C   0  0  0  0  0  3  0  0  0  0  0  0
   15.6210   -4.4750   58.8960 C   0  0  0  0  0  3  0  0  0  0  0  0
   12.7770   -2.0060   59.6310 C   0  0  0  0  0  0  0  0  0  0  0  0
   13.2290   -0.7050   59.2900 C   0  0  0  0  0  3  0  0  0  0  0  0
   12.3390    0.3660   59.1790 C   0  0  0  0  0  3  0  0  0  0  0  0
   10.9790    0.1770   59.4040 C   0  0  0  0  0  3  0  0  0  0  0  0
   10.4990   -1.0870   59.7410 C   0  0  0  0  0  0  0  0  0  0  0  0
   11.3870   -2.1670   59.8540 C   0  0  0  0  0  3  0  0  0  0  0  0
    8.7450   -1.3230   60.0450 S   0  0  0  0  0  0  0  0  0  0  0  0
    8.5930   -1.8910   61.4650 O   0  0  0  0  0  0  0  0  0  0  0  0
    7.4630   -0.0590   59.8190 C   0  0  0  0  0  1  0  0  0  0  0  0
    8.3100   -2.5680   59.2580 O   0  0  0  0  0  0  0  0  0  0  0  0
   19.0610   -5.8510   60.2180 C   0  0  1  0  0  3  0  0  0  0  0  0
   20.4380   -6.0530   59.5560 C   0  0  0  0  0  1  0  0  0  0  0  0
   18.9590   -4.3880   60.6200 C   0  0  0  0  0  0  0  0  0  0  0  0
   18.9040   -3.2950   59.7360 C   0  0  0  0  0  0  0  0  0  0  0  0
   18.9010   -3.3070   58.2380 C   0  0  0  0  0  1  0  0  0  0  0  0
   18.8080   -1.8750   60.6330 S   0  0  0  0  0  0  0  0  0  0  0  0
   18.8320   -2.6170   62.1380 C   0  0  0  0  0  0  0  0  0  0  0  0
   18.7750   -1.9090   63.4510 C   0  0  0  0  0  1  0  0  0  0  0  0
   18.9170   -3.9900   61.9680 C   0  0  0  0  0  3  0  0  0  0  0  0
  1 11  1  0  0  0  0
  1 29  1  0  0  0  0
  2  3  2  0  0  0  0
  2  1  1  0  0  0  0
  4  2  2  0  0  0  0
  5  2  1  0  0  0  0
  6  5  2  0  0  0  0
  7  6  1  0  0  0  0
  8  7  1  0  0  0  0
  9  7  1  0  0  0  0
  9 10  2  0  0  0  0
 10  5  1  0  0  0  0
 12 11  1  0  0  0  0
 12 13  1  0  0  0  0
 13 14  1  0  0  0  0
 15 13  2  0  0  0  0
 16 15  1  0  0  0  0
 17 18  1  0  0  0  0
 17 16  2  0  0  0  0
 18 12  2  0  0  0  0
 19 16  1  0  0  0  0
 19 24  1  0  0  0  0
 20 19  2  0  0  0  0
 21 20  1  0  0  0  0
 21 22  2  0  0  0  0
 22 23  1  0  0  0  0
 23 24  2  0  0  0  0
 23 25  1  0  0  0  0
 25 26  2  0  0  0  0
 27 25  1  0  0  0  0
 28 25  2  0  0  0  0
 29 30  1  6  0  0  0
 29 31  1  0  0  0  0
 31 37  1  0  0  0  0
 32 31  2  0  0  0  0
 32 34  1  0  0  0  0
 33 32  1  0  0  0  0
 34 35  1  0  0  0  0
 35 36  1  0  0  0  0
 37 35  2  0  0  0  0
M  END
>  <POSE>
5

>  <SCORE>
-10.588

>  <RMSD_LB_BP>
1.838

>  <RMSD_UB_BP>
2.703

$$$$
/content/1PQ6_Docking/DOCKING/CLC-0000193/CLC-0000193_output.pdbqt
 OpenBabel03072503353D

 37 40  0  0  1  0  0  0  0  0999 V2000
   18.5600   -6.1090   59.8250 N   0  0  0  0  0  0  0  0  0  0  0  0
   18.3800   -5.7570   61.5750 S   0  0  0  0  0  0  0  0  0  0  0  0
   16.8650   -5.7030   61.8260 O   0  0  0  0  0  0  0  0  0  0  0  0
   18.7880   -7.0280   62.3350 O   0  0  0  0  0  0  0  0  0  0  0  0
   19.0790   -4.2650   62.2640 C   0  0  0  0  0  0  0  0  0  0  0  0
   20.3500   -4.1240   62.7690 C   0  0  0  0  0  3  0  0  0  0  0  0
   20.4630   -2.8640   63.2230 N   0  0  0  0  0  0  0  0  0  0  0  0
   21.6310   -2.2520   63.8420 C   0  0  0  0  0  1  0  0  0  0  0  0
   19.2740   -2.2720   62.9950 C   0  0  0  0  0  3  0  0  0  0  0  0
   18.3960   -3.1110   62.4090 N   0  0  0  0  0  0  0  0  0  0  0  0
   18.5510   -4.8620   59.0060 C   0  0  0  0  0  2  0  0  0  0  0  0
   17.2860   -3.9970   59.1110 C   0  0  0  0  0  0  0  0  0  0  0  0
   17.2920   -2.5730   59.2210 C   0  0  0  0  0  0  0  0  0  0  0  0
   18.5310   -1.7070   59.2700 C   0  0  0  0  0  1  0  0  0  0  0  0
   16.0710   -1.8750   59.3210 C   0  0  0  0  0  3  0  0  0  0  0  0
   14.8230   -2.5320   59.3390 C   0  0  0  0  0  0  0  0  0  0  0  0
   14.8440   -3.9360   59.2680 C   0  0  0  0  0  3  0  0  0  0  0  0
   16.0400   -4.6400   59.1620 C   0  0  0  0  0  3  0  0  0  0  0  0
   13.5170   -1.7650   59.4500 C   0  0  0  0  0  0  0  0  0  0  0  0
   13.4810   -0.3500   59.3450 C   0  0  0  0  0  3  0  0  0  0  0  0
   12.2790    0.3540   59.4490 C   0  0  0  0  0  3  0  0  0  0  0  0
   11.0820   -0.3240   59.6610 C   0  0  0  0  0  3  0  0  0  0  0  0
   11.0790   -1.7130   59.7700 C   0  0  0  0  0  0  0  0  0  0  0  0
   12.2820   -2.4260   59.6670 C   0  0  0  0  0  3  0  0  0  0  0  0
    9.5340   -2.5810   60.0590 S   0  0  0  0  0  0  0  0  0  0  0  0
    8.9370   -2.0400   61.3690 O   0  0  0  0  0  0  0  0  0  0  0  0
    8.1810   -2.7390   58.8620 C   0  0  0  0  0  1  0  0  0  0  0  0
    9.8900   -3.9940   60.5440 O   0  0  0  0  0  0  0  0  0  0  0  0
   19.5790   -7.1490   59.4810 C   0  0  1  0  0  3  0  0  0  0  0  0
   19.1120   -8.5890   59.7710 C   0  0  0  0  0  1  0  0  0  0  0  0
   19.9570   -7.0810   58.0090 C   0  0  0  0  0  0  0  0  0  0  0  0
   19.1030   -7.3590   56.9270 C   0  0  0  0  0  0  0  0  0  0  0  0
   17.6560   -7.7450   56.9580 C   0  0  0  0  0  1  0  0  0  0  0  0
   19.9600   -7.1630   55.4930 S   0  0  0  0  0  0  0  0  0  0  0  0
   21.4110   -6.7260   56.2150 C   0  0  0  0  0  0  0  0  0  0  0  0
   22.6710   -6.3930   55.4880 C   0  0  0  0  0  1  0  0  0  0  0  0
   21.2530   -6.7260   57.5920 C   0  0  0  0  0  3  0  0  0  0  0  0
  1  2  1  0  0  0  0
  2  3  2  0  0  0  0
  2  5  1  0  0  0  0
  2  4  2  0  0  0  0
  5 10  1  0  0  0  0
  5  6  2  0  0  0  0
  6  7  1  0  0  0  0
  7  8  1  0  0  0  0
  9  7  1  0  0  0  0
 10  9  2  0  0  0  0
 11 12  1  0  0  0  0
 11  1  1  0  0  0  0
 12 18  2  0  0  0  0
 12 13  1  0  0  0  0
 13 14  1  0  0  0  0
 13 15  2  0  0  0  0
 15 16  1  0  0  0  0
 16 19  1  0  0  0  0
 17 16  2  0  0  0  0
 18 17  1  0  0  0  0
 19 24  1  0  0  0  0
 20 21  1  0  0  0  0
 20 19  2  0  0  0  0
 21 22  2  0  0  0  0
 22 23  1  0  0  0  0
 23 25  1  0  0  0  0
 24 23  2  0  0  0  0
 25 28  2  0  0  0  0
 25 26  2  0  0  0  0
 27 25  1  0  0  0  0
 29 30  1  6  0  0  0
 29  1  1  0  0  0  0
 31 29  1  0  0  0  0
 32 33  1  0  0  0  0
 32 31  2  0  0  0  0
 34 35  1  0  0  0  0
 34 32  1  0  0  0  0
 35 37  2  0  0  0  0
 36 35  1  0  0  0  0
 37 31  1  0  0  0  0
M  END
>  <POSE>
6

>  <SCORE>
-10.587

>  <RMSD_LB_BP>
2.148

>  <RMSD_UB_BP>
5.068

$$$$
/content/1PQ6_Docking/DOCKING/CLC-0000193/CLC-0000193_output.pdbqt
 OpenBabel03072503353D

 37 40  0  0  1  0  0  0  0  0999 V2000
   18.3930   -5.1670   59.6170 N   0  0  0  0  0  0  0  0  0  0  0  0
   18.1870   -5.0670   61.3960 S   0  0  0  0  0  0  0  0  0  0  0  0
   16.6770   -4.9060   61.6240 O   0  0  0  0  0  0  0  0  0  0  0  0
   18.4490   -6.4730   61.9600 O   0  0  0  0  0  0  0  0  0  0  0  0
   18.9990   -3.7720   62.3200 C   0  0  0  0  0  0  0  0  0  0  0  0
   20.2740   -3.8190   62.8340 C   0  0  0  0  0  3  0  0  0  0  0  0
   20.4840   -2.6660   63.4910 N   0  0  0  0  0  0  0  0  0  0  0  0
   21.6930   -2.2610   64.1950 C   0  0  0  0  0  1  0  0  0  0  0  0
   19.3470   -1.9510   63.3730 C   0  0  0  0  0  3  0  0  0  0  0  0
   18.4090   -2.6080   62.6610 N   0  0  0  0  0  0  0  0  0  0  0  0
   17.9160   -3.9280   58.9360 C   0  0  0  0  0  2  0  0  0  0  0  0
   16.4490   -3.5460   59.1830 C   0  0  0  0  0  0  0  0  0  0  0  0
   16.0050   -2.2260   59.5030 C   0  0  0  0  0  0  0  0  0  0  0  0
   16.9010   -1.0180   59.6630 C   0  0  0  0  0  1  0  0  0  0  0  0
   14.6330   -1.9860   59.7210 C   0  0  0  0  0  3  0  0  0  0  0  0
   13.6640   -3.0100   59.6570 C   0  0  0  0  0  0  0  0  0  0  0  0
   14.1310   -4.3070   59.3790 C   0  0  0  0  0  3  0  0  0  0  0  0
   15.4810   -4.5610   59.1550 C   0  0  0  0  0  3  0  0  0  0  0  0
   12.1910   -2.7330   59.8970 C   0  0  0  0  0  0  0  0  0  0  0  0
   11.3240   -3.7360   60.4010 C   0  0  0  0  0  3  0  0  0  0  0  0
    9.9680   -3.4790   60.6190 C   0  0  0  0  0  3  0  0  0  0  0  0
    9.4350   -2.2240   60.3440 C   0  0  0  0  0  3  0  0  0  0  0  0
   10.2580   -1.2140   59.8470 C   0  0  0  0  0  0  0  0  0  0  0  0
   11.6190   -1.4640   59.6260 C   0  0  0  0  0  3  0  0  0  0  0  0
    9.5620    0.4000   59.4790 S   0  0  0  0  0  0  0  0  0  0  0  0
   10.3070    0.9560   58.2540 O   0  0  0  0  0  0  0  0  0  0  0  0
    7.7970    0.7560   59.2580 C   0  0  0  0  0  1  0  0  0  0  0  0
   10.1030    1.3800   60.5320 O   0  0  0  0  0  0  0  0  0  0  0  0
   19.6890   -5.7500   59.1520 C   0  0  1  0  0  3  0  0  0  0  0  0
   20.2460   -6.8400   60.0890 C   0  0  0  0  0  1  0  0  0  0  0  0
   19.5490   -6.3670   57.7690 C   0  0  0  0  0  0  0  0  0  0  0  0
   18.4980   -7.2000   57.3440 C   0  0  0  0  0  0  0  0  0  0  0  0
   17.2880   -7.6400   58.1110 C   0  0  0  0  0  1  0  0  0  0  0  0
   18.7730   -7.6490   55.7460 S   0  0  0  0  0  0  0  0  0  0  0  0
   20.2110   -6.8030   55.5710 C   0  0  0  0  0  0  0  0  0  0  0  0
   21.0430   -6.7600   54.3330 C   0  0  0  0  0  1  0  0  0  0  0  0
   20.5050   -6.1530   56.7600 C   0  0  0  0  0  3  0  0  0  0  0  0
  1  2  1  0  0  0  0
  2  3  2  0  0  0  0
  2  4  2  0  0  0  0
  2  5  1  0  0  0  0
  5 10  1  0  0  0  0
  5  6  2  0  0  0  0
  6  7  1  0  0  0  0
  7  8  1  0  0  0  0
  9  7  1  0  0  0  0
 10  9  2  0  0  0  0
 11 12  1  0  0  0  0
 11  1  1  0  0  0  0
 12 13  1  0  0  0  0
 13 14  1  0  0  0  0
 13 15  2  0  0  0  0
 16 15  1  0  0  0  0
 16 19  1  0  0  0  0
 17 16  2  0  0  0  0
 18 12  2  0  0  0  0
 18 17  1  0  0  0  0
 19 20  1  0  0  0  0
 20 21  2  0  0  0  0
 22 21  1  0  0  0  0
 23 22  2  0  0  0  0
 24 23  1  0  0  0  0
 24 19  2  0  0  0  0
 25 23  1  0  0  0  0
 25 28  2  0  0  0  0
 26 25  2  0  0  0  0
 27 25  1  0  0  0  0
 29  1  1  0  0  0  0
 29 30  1  1  0  0  0
 31 29  1  0  0  0  0
 32 31  2  0  0  0  0
 32 33  1  0  0  0  0
 34 32  1  0  0  0  0
 35 34  1  0  0  0  0
 35 37  2  0  0  0  0
 36 35  1  0  0  0  0
 37 31  1  0  0  0  0
M  END
>  <POSE>
7

>  <SCORE>
-10.222

>  <RMSD_LB_BP>
1.670

>  <RMSD_UB_BP>
4.840

$$$$
/content/1PQ6_Docking/DOCKING/CLC-0000193/CLC-0000193_output.pdbqt
 OpenBabel03072503353D

 37 40  0  0  1  0  0  0  0  0999 V2000
   17.6140   -4.0240   59.7780 N   0  0  0  0  0  0  0  0  0  0  0  0
   18.8900   -4.7960   60.7750 S   0  0  0  0  0  0  0  0  0  0  0  0
   18.2330   -6.0430   61.3860 O   0  0  0  0  0  0  0  0  0  0  0  0
   19.9100   -5.4120   59.8050 O   0  0  0  0  0  0  0  0  0  0  0  0
   19.6470   -3.8920   62.1170 C   0  0  0  0  0  0  0  0  0  0  0  0
   19.0050   -3.0380   62.9820 C   0  0  0  0  0  3  0  0  0  0  0  0
   19.9350   -2.5350   63.8120 N   0  0  0  0  0  0  0  0  0  0  0  0
   19.7260   -1.5880   64.8990 C   0  0  0  0  0  1  0  0  0  0  0  0
   21.1100   -3.0790   63.4380 C   0  0  0  0  0  3  0  0  0  0  0  0
   20.9670   -3.9170   62.3910 N   0  0  0  0  0  0  0  0  0  0  0  0
   16.9150   -2.9360   60.5220 C   0  0  0  0  0  2  0  0  0  0  0  0
   15.3950   -2.8520   60.3220 C   0  0  0  0  0  0  0  0  0  0  0  0
   14.4800   -3.8960   60.6610 C   0  0  0  0  0  0  0  0  0  0  0  0
   14.8640   -5.2370   61.2460 C   0  0  0  0  0  1  0  0  0  0  0  0
   13.1010   -3.7200   60.4260 C   0  0  0  0  0  3  0  0  0  0  0  0
   12.5760   -2.5480   59.8420 C   0  0  0  0  0  0  0  0  0  0  0  0
   13.5000   -1.5500   59.4820 C   0  0  0  0  0  3  0  0  0  0  0  0
   14.8640   -1.7060   59.7130 C   0  0  0  0  0  3  0  0  0  0  0  0
   11.0880   -2.3760   59.5950 C   0  0  0  0  0  0  0  0  0  0  0  0
   10.2230   -3.4950   59.4890 C   0  0  0  0  0  3  0  0  0  0  0  0
    8.8540   -3.3340   59.2600 C   0  0  0  0  0  3  0  0  0  0  0  0
    8.3070   -2.0620   59.1270 C   0  0  0  0  0  3  0  0  0  0  0  0
    9.1270   -0.9390   59.2240 C   0  0  0  0  0  0  0  0  0  0  0  0
   10.5010   -1.0930   59.4550 C   0  0  0  0  0  3  0  0  0  0  0  0
    8.4180    0.7000   59.0370 S   0  0  0  0  0  0  0  0  0  0  0  0
    9.0560    1.6050   60.1040 O   0  0  0  0  0  0  0  0  0  0  0  0
    8.3480    1.6420   57.4880 C   0  0  0  0  0  1  0  0  0  0  0  0
    6.9940    0.6490   59.6110 O   0  0  0  0  0  0  0  0  0  0  0  0
   17.9870   -3.7540   58.3550 C   0  0  1  0  0  3  0  0  0  0  0  0
   19.1710   -2.7800   58.2020 C   0  0  0  0  0  1  0  0  0  0  0  0
   18.3580   -5.0400   57.6320 C   0  0  0  0  0  0  0  0  0  0  0  0
   17.7200   -6.2840   57.7870 C   0  0  0  0  0  0  0  0  0  0  0  0
   16.5420   -6.6270   58.6470 C   0  0  0  0  0  1  0  0  0  0  0  0
   18.4810   -7.4120   56.7960 S   0  0  0  0  0  0  0  0  0  0  0  0
   19.6150   -6.3510   56.1620 C   0  0  0  0  0  0  0  0  0  0  0  0
   20.6670   -6.7060   55.1650 C   0  0  0  0  0  1  0  0  0  0  0  0
   19.4230   -5.0940   56.7140 C   0  0  0  0  0  3  0  0  0  0  0  0
  1 11  1  0  0  0  0
  1  2  1  0  0  0  0
  2  3  2  0  0  0  0
  2  5  1  0  0  0  0
  4  2  2  0  0  0  0
  5 10  1  0  0  0  0
  5  6  2  0  0  0  0
  6  7  1  0  0  0  0
  7  8  1  0  0  0  0
  9  7  1  0  0  0  0
 10  9  2  0  0  0  0
 12 11  1  0  0  0  0
 12 13  1  0  0  0  0
 13 14  1  0  0  0  0
 15 13  2  0  0  0  0
 16 15  1  0  0  0  0
 17 18  1  0  0  0  0
 17 16  2  0  0  0  0
 18 12  2  0  0  0  0
 19 16  1  0  0  0  0
 20 19  1  0  0  0  0
 21 20  2  0  0  0  0
 22 23  2  0  0  0  0
 22 21  1  0  0  0  0
 23 24  1  0  0  0  0
 24 19  2  0  0  0  0
 25 23  1  0  0  0  0
 25 28  2  0  0  0  0
 25 26  2  0  0  0  0
 27 25  1  0  0  0  0
 29 30  1  1  0  0  0
 29  1  1  0  0  0  0
 31 32  2  0  0  0  0
 31 29  1  0  0  0  0
 32 33  1  0  0  0  0
 34 32  1  0  0  0  0
 35 37  2  0  0  0  0
 35 34  1  0  0  0  0
 36 35  1  0  0  0  0
 37 31  1  0  0  0  0
M  END
>  <POSE>
8

>  <SCORE>
-10.111

>  <RMSD_LB_BP>
2.060

>  <RMSD_UB_BP>
5.009

$$$$
/content/1PQ6_Docking/DOCKING/CLC-0000193/CLC-0000193_output.pdbqt
 OpenBabel03072503353D

 37 40  0  0  1  0  0  0  0  0999 V2000
   16.0620   -3.7990   60.8920 N   0  0  0  0  0  0  0  0  0  0  0  0
   17.4700   -2.6910   60.8090 S   0  0  0  0  0  0  0  0  0  0  0  0
   18.0570   -2.8820   59.4020 O   0  0  0  0  0  0  0  0  0  0  0  0
   16.9150   -1.2600   60.7350 O   0  0  0  0  0  0  0  0  0  0  0  0
   18.8180   -2.8680   61.9680 C   0  0  0  0  0  0  0  0  0  0  0  0
   18.9290   -2.2350   63.1840 C   0  0  0  0  0  3  0  0  0  0  0  0
   20.1030   -2.6070   63.7220 N   0  0  0  0  0  0  0  0  0  0  0  0
   20.6540   -2.1930   65.0060 C   0  0  0  0  0  1  0  0  0  0  0  0
   20.6800   -3.4410   62.8340 C   0  0  0  0  0  3  0  0  0  0  0  0
   19.9140   -3.6190   61.7380 N   0  0  0  0  0  0  0  0  0  0  0  0
   15.2910   -3.8100   59.6140 C   0  0  0  0  0  2  0  0  0  0  0  0
   13.9600   -3.0460   59.6240 C   0  0  0  0  0  0  0  0  0  0  0  0
   13.8260   -1.6590   59.3100 C   0  0  0  0  0  0  0  0  0  0  0  0
   14.9650   -0.7340   58.9410 C   0  0  0  0  0  1  0  0  0  0  0  0
   12.5550   -1.0510   59.3590 C   0  0  0  0  0  3  0  0  0  0  0  0
   11.3910   -1.7570   59.7320 C   0  0  0  0  0  0  0  0  0  0  0  0
   11.5550   -3.1120   60.0740 C   0  0  0  0  0  3  0  0  0  0  0  0
   12.8010   -3.7290   60.0240 C   0  0  0  0  0  3  0  0  0  0  0  0
   10.0310   -1.0860   59.7820 C   0  0  0  0  0  0  0  0  0  0  0  0
    9.0840   -1.4100   60.7870 C   0  0  0  0  0  3  0  0  0  0  0  0
    7.8320   -0.7920   60.8300 C   0  0  0  0  0  3  0  0  0  0  0  0
    7.4840    0.1610   59.8780 C   0  0  0  0  0  3  0  0  0  0  0  0
    8.3880    0.5040   58.8750 C   0  0  0  0  0  0  0  0  0  0  0  0
    9.6470   -0.1120   58.8260 C   0  0  0  0  0  3  0  0  0  0  0  0
    7.9280    1.7230   57.6400 S   0  0  0  0  0  0  0  0  0  0  0  0
    7.8500    1.0030   56.2840 O   0  0  0  0  0  0  0  0  0  0  0  0
    6.5040    2.8420   57.7500 C   0  0  0  0  0  1  0  0  0  0  0  0
    9.1710    2.5830   57.3650 O   0  0  0  0  0  0  0  0  0  0  0  0
   16.3200   -5.1170   61.5500 C   0  0  1  0  0  3  0  0  0  0  0  0
   15.0350   -5.8940   61.8980 C   0  0  0  0  0  1  0  0  0  0  0  0
   17.1700   -6.0160   60.6640 C   0  0  0  0  0  0  0  0  0  0  0  0
   18.3380   -6.6910   61.0600 C   0  0  0  0  0  0  0  0  0  0  0  0
   18.9900   -6.7160   62.4090 C   0  0  0  0  0  1  0  0  0  0  0  0
   18.9410   -7.5520   59.7450 S   0  0  0  0  0  0  0  0  0  0  0  0
   17.7410   -7.0860   58.6680 C   0  0  0  0  0  0  0  0  0  0  0  0
   17.6530   -7.5070   57.2380 C   0  0  0  0  0  1  0  0  0  0  0  0
   16.8460   -6.2480   59.3160 C   0  0  0  0  0  3  0  0  0  0  0  0
  1 29  1  0  0  0  0
  2  1  1  0  0  0  0
  2  5  1  0  0  0  0
  3  2  2  0  0  0  0
  4  2  2  0  0  0  0
  5  6  2  0  0  0  0
  6  7  1  0  0  0  0
  7  8  1  0  0  0  0
  9  7  1  0  0  0  0
 10  5  1  0  0  0  0
 10  9  2  0  0  0  0
 11 12  1  0  0  0  0
 11  1  1  0  0  0  0
 12 18  1  0  0  0  0
 13 15  1  0  0  0  0
 13 12  2  0  0  0  0
 14 13  1  0  0  0  0
 15 16  2  0  0  0  0
 16 19  1  0  0  0  0
 16 17  1  0  0  0  0
 18 17  2  0  0  0  0
 19 20  1  0  0  0  0
 20 21  2  0  0  0  0
 22 21  1  0  0  0  0
 23 22  2  0  0  0  0
 24 23  1  0  0  0  0
 24 19  2  0  0  0  0
 25 27  1  0  0  0  0
 25 23  1  0  0  0  0
 26 25  2  0  0  0  0
 28 25  2  0  0  0  0
 29 30  1  6  0  0  0
 31 32  2  0  0  0  0
 31 29  1  0  0  0  0
 32 33  1  0  0  0  0
 34 32  1  0  0  0  0
 35 37  2  0  0  0  0
 35 34  1  0  0  0  0
 36 35  1  0  0  0  0
 37 31  1  0  0  0  0
M  END
>  <POSE>
9

>  <SCORE>
-9.584

>  <RMSD_LB_BP>
2.686

>  <RMSD_UB_BP>
4.933

$$$$
