/content/1PQ6_Docking/DOCKING/CLC-0000185/CLC-0000185_output.pdbqt
 OpenBabel03072503353D

 39 42  0  0  1  0  0  0  0  0999 V2000
   17.8970   -4.2000   60.3740 N   0  0  0  0  0  0  0  0  0  0  0  0
   17.8440   -5.9890   60.5830 S   0  0  0  0  0  0  0  0  0  0  0  0
   16.3970   -6.4020   60.8720 O   0  0  0  0  0  0  0  0  0  0  0  0
   18.5550   -6.3000   61.9090 O   0  0  0  0  0  0  0  0  0  0  0  0
   18.5020   -6.9650   59.2350 C   0  0  0  0  0  0  0  0  0  0  0  0
   19.7850   -6.9080   58.7420 C   0  0  0  0  0  3  0  0  0  0  0  0
   19.8590   -7.7730   57.7160 N   0  0  0  0  0  0  0  0  0  0  0  0
   21.0180   -8.0440   56.8770 C   0  0  0  0  0  1  0  0  0  0  0  0
   18.6400   -8.3370   57.6090 C   0  0  0  0  0  3  0  0  0  0  0  0
   17.7790   -7.8600   58.5310 N   0  0  0  0  0  0  0  0  0  0  0  0
   17.2490   -3.8050   59.1030 C   0  0  0  0  0  2  0  0  0  0  0  0
   15.8050   -3.3950   59.3320 C   0  0  0  0  0  0  0  0  0  0  0  0
   15.3340   -2.0550   59.3440 C   0  0  0  0  0  0  0  0  0  0  0  0
   16.2050   -0.8360   59.1420 C   0  0  0  0  0  1  0  0  0  0  0  0
   13.9620   -1.8120   59.5450 C   0  0  0  0  0  3  0  0  0  0  0  0
   13.0250   -2.8550   59.7390 C   0  0  0  0  0  0  0  0  0  0  0  0
   13.5310   -4.1730   59.7340 C   0  0  0  0  0  3  0  0  0  0  0  0
   14.8850   -4.4320   59.5370 C   0  0  0  0  0  3  0  0  0  0  0  0
   11.5440   -2.5730   59.9360 C   0  0  0  0  0  0  0  0  0  0  0  0
   10.6700   -3.5390   60.4980 C   0  0  0  0  0  3  0  0  0  0  0  0
    9.3120   -3.2720   60.6780 C   0  0  0  0  0  3  0  0  0  0  0  0
    8.7810   -2.0400   60.3090 C   0  0  0  0  0  3  0  0  0  0  0  0
    9.6080   -1.0650   59.7580 C   0  0  0  0  0  0  0  0  0  0  0  0
   10.9720   -1.3270   59.5700 C   0  0  0  0  0  3  0  0  0  0  0  0
    8.9220    0.5250   59.2760 S   0  0  0  0  0  0  0  0  0  0  0  0
    9.5050    1.5770   60.2330 O   0  0  0  0  0  0  0  0  0  0  0  0
    7.4640    0.5560   59.7630 O   0  0  0  0  0  0  0  0  0  0  0  0
    8.9710    1.2040   57.5860 C   0  0  0  0  0  2  0  0  0  0  0  0
    7.8960    2.2650   57.3890 C   0  0  0  0  0  1  0  0  0  0  0  0
   19.1880   -3.4750   60.5730 C   0  0  2  0  0  3  0  0  0  0  0  0
   19.3970   -2.9690   61.9990 C   0  0  0  0  0  0  0  0  0  0  0  0
   18.4070   -2.3530   62.7920 C   0  0  0  0  0  0  0  0  0  0  0  0
   16.9820   -2.0290   62.4520 C   0  0  0  0  0  1  0  0  0  0  0  0
   19.0650   -1.9720   64.2920 S   0  0  0  0  0  0  0  0  0  0  0  0
   20.5920   -2.5800   63.9770 C   0  0  0  0  0  0  0  0  0  0  0  0
   21.7380   -2.5780   64.9320 C   0  0  0  0  0  1  0  0  0  0  0  0
   20.6190   -3.0930   62.6910 C   0  0  0  0  0  3  0  0  0  0  0  0
   19.4530   -2.3670   59.5290 C   0  0  0  0  0  2  0  0  0  0  0  0
   19.4300   -0.9720   60.1550 C   0  0  0  0  0  1  0  0  0  0  0  0
  1 30  1  0  0  0  0
  1  2  1  0  0  0  0
  2  3  2  0  0  0  0
  2  4  2  0  0  0  0
  5  2  1  0  0  0  0
  6  5  2  0  0  0  0
  7  6  1  0  0  0  0
  8  7  1  0  0  0  0
  9  7  1  0  0  0  0
  9 10  2  0  0  0  0
 10  5  1  0  0  0  0
 11 12  1  0  0  0  0
 11  1  1  0  0  0  0
 12 13  2  0  0  0  0
 12 18  1  0  0  0  0
 13 15  1  0  0  0  0
 14 13  1  0  0  0  0
 15 16  2  0  0  0  0
 16 19  1  0  0  0  0
 17 16  1  0  0  0  0
 18 17  2  0  0  0  0
 19 20  1  0  0  0  0
 20 21  2  0  0  0  0
 22 21  1  0  0  0  0
 23 22  2  0  0  0  0
 24 23  1  0  0  0  0
 24 19  2  0  0  0  0
 25 23  1  0  0  0  0
 25 27  2  0  0  0  0
 25 26  2  0  0  0  0
 28 25  1  0  0  0  0
 29 28  1  0  0  0  0
 30 38  1  6  0  0  0
 30 31  1  0  0  0  0
 31 37  1  0  0  0  0
 31 32  2  0  0  0  0
 32 34  1  0  0  0  0
 33 32  1  0  0  0  0
 35 34  1  0  0  0  0
 35 36  1  0  0  0  0
 37 35  2  0  0  0  0
 38 39  1  0  0  0  0
M  END
>  <POSE>
1

>  <SCORE>
-11.220

>  <RMSD_LB_BP>
0.000

>  <RMSD_UB_BP>
0.000

$$$$
/content/1PQ6_Docking/DOCKING/CLC-0000185/CLC-0000185_output.pdbqt
 OpenBabel03072503353D

 39 42  0  0  1  0  0  0  0  0999 V2000
   17.4640   -2.4730   60.1640 N   0  0  0  0  0  0  0  0  0  0  0  0
   18.0020   -1.5940   61.6410 S   0  0  0  0  0  0  0  0  0  0  0  0
   16.7870   -1.3810   62.5500 O   0  0  0  0  0  0  0  0  0  0  0  0
   18.3500   -0.1630   61.2010 O   0  0  0  0  0  0  0  0  0  0  0  0
   19.3370   -2.3430   62.5690 C   0  0  0  0  0  0  0  0  0  0  0  0
   19.7760   -1.9570   63.8140 C   0  0  0  0  0  3  0  0  0  0  0  0
   20.8110   -2.7510   64.1370 N   0  0  0  0  0  0  0  0  0  0  0  0
   21.6060   -2.7060   65.3570 C   0  0  0  0  0  1  0  0  0  0  0  0
   20.9760   -3.5970   63.1020 C   0  0  0  0  0  3  0  0  0  0  0  0
   20.0830   -3.3720   62.1170 N   0  0  0  0  0  0  0  0  0  0  0  0
   16.7230   -3.7020   60.5300 C   0  0  0  0  0  2  0  0  0  0  0  0
   15.2300   -3.5170   60.3290 C   0  0  0  0  0  0  0  0  0  0  0  0
   14.2340   -4.4370   60.7540 C   0  0  0  0  0  0  0  0  0  0  0  0
   14.5160   -5.7440   61.4600 C   0  0  0  0  0  1  0  0  0  0  0  0
   12.8780   -4.1340   60.5270 C   0  0  0  0  0  3  0  0  0  0  0  0
   12.4630   -2.9430   59.8850 C   0  0  0  0  0  0  0  0  0  0  0  0
   13.4790   -2.0590   59.4650 C   0  0  0  0  0  3  0  0  0  0  0  0
   14.8250   -2.3430   59.6810 C   0  0  0  0  0  3  0  0  0  0  0  0
   10.9920   -2.6250   59.6650 C   0  0  0  0  0  0  0  0  0  0  0  0
   10.0070   -3.6450   59.6300 C   0  0  0  0  0  3  0  0  0  0  0  0
    8.6580   -3.3460   59.4310 C   0  0  0  0  0  3  0  0  0  0  0  0
    8.2460   -2.0280   59.2630 C   0  0  0  0  0  3  0  0  0  0  0  0
    9.1830   -0.9990   59.2960 C   0  0  0  0  0  0  0  0  0  0  0  0
   10.5390   -1.2910   59.4910 C   0  0  0  0  0  3  0  0  0  0  0  0
    8.6530    0.7040   59.0740 S   0  0  0  0  0  0  0  0  0  0  0  0
    9.3890    1.5470   60.1260 O   0  0  0  0  0  0  0  0  0  0  0  0
    7.2300    0.8140   59.6470 O   0  0  0  0  0  0  0  0  0  0  0  0
    8.6980    1.6040   57.4900 C   0  0  0  0  0  2  0  0  0  0  0  0
    7.5700    2.6240   57.4050 C   0  0  0  0  0  1  0  0  0  0  0  0
   18.4440   -2.7370   59.0680 C   0  0  2  0  0  3  0  0  0  0  0  0
   18.6980   -4.2220   58.8120 C   0  0  0  0  0  0  0  0  0  0  0  0
   18.9000   -4.8000   57.5430 C   0  0  0  0  0  0  0  0  0  0  0  0
   18.8910   -4.1520   56.1890 C   0  0  0  0  0  1  0  0  0  0  0  0
   19.1590   -6.4520   57.7270 S   0  0  0  0  0  0  0  0  0  0  0  0
   19.0330   -6.4660   59.3960 C   0  0  0  0  0  0  0  0  0  0  0  0
   19.1740   -7.6710   60.2640 C   0  0  0  0  0  1  0  0  0  0  0  0
   18.7850   -5.1790   59.8430 C   0  0  0  0  0  3  0  0  0  0  0  0
   19.7650   -1.9460   59.2020 C   0  0  0  0  0  2  0  0  0  0  0  0
   19.8510   -0.7990   58.1950 C   0  0  0  0  0  1  0  0  0  0  0  0
  1 11  1  0  0  0  0
  1  2  1  0  0  0  0
  2  3  2  0  0  0  0
  2  5  1  0  0  0  0
  4  2  2  0  0  0  0
  5  6  2  0  0  0  0
  6  7  1  0  0  0  0
  7  8  1  0  0  0  0
  9  7  1  0  0  0  0
 10  5  1  0  0  0  0
 10  9  2  0  0  0  0
 12 11  1  0  0  0  0
 12 13  1  0  0  0  0
 13 14  1  0  0  0  0
 15 13  2  0  0  0  0
 16 15  1  0  0  0  0
 17 18  1  0  0  0  0
 17 16  2  0  0  0  0
 18 12  2  0  0  0  0
 19 16  1  0  0  0  0
 20 19  1  0  0  0  0
 21 20  2  0  0  0  0
 22 23  2  0  0  0  0
 22 21  1  0  0  0  0
 23 24  1  0  0  0  0
 24 19  2  0  0  0  0
 25 23  1  0  0  0  0
 25 27  2  0  0  0  0
 25 26  2  0  0  0  0
 28 25  1  0  0  0  0
 29 28  1  0  0  0  0
 30 38  1  1  0  0  0
 30  1  1  0  0  0  0
 31 30  1  0  0  0  0
 31 37  1  0  0  0  0
 32 34  1  0  0  0  0
 32 31  2  0  0  0  0
 33 32  1  0  0  0  0
 34 35  1  0  0  0  0
 35 37  2  0  0  0  0
 35 36  1  0  0  0  0
 39 38  1  0  0  0  0
M  END
>  <POSE>
2

>  <SCORE>
-10.898

>  <RMSD_LB_BP>
2.277

>  <RMSD_UB_BP>
4.469

$$$$
/content/1PQ6_Docking/DOCKING/CLC-0000185/CLC-0000185_output.pdbqt
 OpenBabel03072503353D

 39 42  0  0  1  0  0  0  0  0999 V2000
   18.5490   -6.3220   59.6740 N   0  0  0  0  0  0  0  0  0  0  0  0
   18.7990   -5.4750   61.2430 S   0  0  0  0  0  0  0  0  0  0  0  0
   20.2750   -5.6000   61.6350 O   0  0  0  0  0  0  0  0  0  0  0  0
   18.0920   -6.3170   62.3170 O   0  0  0  0  0  0  0  0  0  0  0  0
   18.2910   -3.7600   61.3090 C   0  0  0  0  0  0  0  0  0  0  0  0
   18.8660   -2.7170   60.6200 C   0  0  0  0  0  3  0  0  0  0  0  0
   18.2130   -1.5970   60.9720 N   0  0  0  0  0  0  0  0  0  0  0  0
   18.4790   -0.2410   60.5090 C   0  0  0  0  0  1  0  0  0  0  0  0
   17.2630   -1.9720   61.8490 C   0  0  0  0  0  3  0  0  0  0  0  0
   17.2840   -3.3010   62.0790 N   0  0  0  0  0  0  0  0  0  0  0  0
   17.1430   -6.7660   59.5390 C   0  0  0  0  0  2  0  0  0  0  0  0
   16.2000   -5.5790   59.4900 C   0  0  0  0  0  0  0  0  0  0  0  0
   16.3460   -4.4600   58.6250 C   0  0  0  0  0  0  0  0  0  0  0  0
   17.4730   -4.2830   57.6330 C   0  0  0  0  0  1  0  0  0  0  0  0
   15.3840   -3.4330   58.6630 C   0  0  0  0  0  3  0  0  0  0  0  0
   14.2690   -3.4680   59.5350 C   0  0  0  0  0  0  0  0  0  0  0  0
   14.1630   -4.5870   60.3880 C   0  0  0  0  0  3  0  0  0  0  0  0
   15.1050   -5.6110   60.3650 C   0  0  0  0  0  3  0  0  0  0  0  0
   13.2310   -2.3570   59.5470 C   0  0  0  0  0  0  0  0  0  0  0  0
   13.5820   -1.0050   59.2970 C   0  0  0  0  0  3  0  0  0  0  0  0
   12.6230    0.0090   59.3080 C   0  0  0  0  0  3  0  0  0  0  0  0
   11.2880   -0.2860   59.5640 C   0  0  0  0  0  3  0  0  0  0  0  0
   10.9040   -1.6020   59.8090 C   0  0  0  0  0  0  0  0  0  0  0  0
   11.8610   -2.6250   59.8050 C   0  0  0  0  0  3  0  0  0  0  0  0
    9.1800   -1.9840   60.1450 S   0  0  0  0  0  0  0  0  0  0  0  0
    9.1600   -3.0180   61.2820 O   0  0  0  0  0  0  0  0  0  0  0  0
    8.6840   -2.8880   59.0050 O   0  0  0  0  0  0  0  0  0  0  0  0
    7.8920   -0.7410   60.4850 C   0  0  0  0  0  2  0  0  0  0  0  0
    7.8460    0.3160   59.3890 C   0  0  0  0  0  1  0  0  0  0  0  0
   19.5000   -7.3980   59.2600 C   0  0  2  0  0  3  0  0  0  0  0  0
   20.0250   -7.2430   57.8340 C   0  0  0  0  0  0  0  0  0  0  0  0
   19.2650   -7.4540   56.6660 C   0  0  0  0  0  0  0  0  0  0  0  0
   17.8350   -7.8870   56.5270 C   0  0  0  0  0  1  0  0  0  0  0  0
   20.2310   -7.1570   55.3220 S   0  0  0  0  0  0  0  0  0  0  0  0
   21.6090   -6.7500   56.1800 C   0  0  0  0  0  0  0  0  0  0  0  0
   22.9150   -6.3470   55.5800 C   0  0  0  0  0  1  0  0  0  0  0  0
   21.3420   -6.8400   57.5360 C   0  0  0  0  0  3  0  0  0  0  0  0
   18.9820   -8.8300   59.5260 C   0  0  0  0  0  2  0  0  0  0  0  0
   19.5490   -9.4140   60.8200 C   0  0  0  0  0  1  0  0  0  0  0  0
  1  2  1  0  0  0  0
  2  5  1  0  0  0  0
  2  3  2  0  0  0  0
  2  4  2  0  0  0  0
  5 10  1  0  0  0  0
  6  7  1  0  0  0  0
  6  5  2  0  0  0  0
  7  9  1  0  0  0  0
  8  7  1  0  0  0  0
  9 10  2  0  0  0  0
 11  1  1  0  0  0  0
 12 11  1  0  0  0  0
 12 18  1  0  0  0  0
 13 15  1  0  0  0  0
 13 12  2  0  0  0  0
 14 13  1  0  0  0  0
 15 16  2  0  0  0  0
 16 19  1  0  0  0  0
 16 17  1  0  0  0  0
 18 17  2  0  0  0  0
 19 24  1  0  0  0  0
 20 21  1  0  0  0  0
 20 19  2  0  0  0  0
 21 22  2  0  0  0  0
 22 23  1  0  0  0  0
 23 25  1  0  0  0  0
 24 23  2  0  0  0  0
 25 28  1  0  0  0  0
 25 26  2  0  0  0  0
 27 25  2  0  0  0  0
 29 28  1  0  0  0  0
 30 38  1  6  0  0  0
 30  1  1  0  0  0  0
 31 30  1  0  0  0  0
 32 31  2  0  0  0  0
 33 32  1  0  0  0  0
 34 35  1  0  0  0  0
 34 32  1  0  0  0  0
 35 37  2  0  0  0  0
 36 35  1  0  0  0  0
 37 31  1  0  0  0  0
 38 39  1  0  0  0  0
M  END
>  <POSE>
3

>  <SCORE>
-10.353

>  <RMSD_LB_BP>
2.217

>  <RMSD_UB_BP>
5.285

$$$$
/content/1PQ6_Docking/DOCKING/CLC-0000185/CLC-0000185_output.pdbqt
 OpenBabel03072503353D

 39 42  0  0  1  0  0  0  0  0999 V2000
   17.3200   -2.8410   59.4150 N   0  0  0  0  0  0  0  0  0  0  0  0
   18.4000   -1.5840   60.1210 S   0  0  0  0  0  0  0  0  0  0  0  0
   17.6600   -0.2420   60.1050 O   0  0  0  0  0  0  0  0  0  0  0  0
   19.5340   -1.3560   59.1090 O   0  0  0  0  0  0  0  0  0  0  0  0
   19.0340   -1.9130   61.7620 C   0  0  0  0  0  0  0  0  0  0  0  0
   20.2080   -2.5650   62.0630 C   0  0  0  0  0  3  0  0  0  0  0  0
   20.2970   -2.6320   63.4020 N   0  0  0  0  0  0  0  0  0  0  0  0
   21.3620   -3.2470   64.1820 C   0  0  0  0  0  1  0  0  0  0  0  0
   19.1960   -2.0250   63.8850 C   0  0  0  0  0  3  0  0  0  0  0  0
   18.3960   -1.5700   62.8990 N   0  0  0  0  0  0  0  0  0  0  0  0
   16.5410   -3.5150   60.4780 C   0  0  0  0  0  2  0  0  0  0  0  0
   15.0500   -3.3260   60.2640 C   0  0  0  0  0  0  0  0  0  0  0  0
   14.0530   -4.2750   60.6140 C   0  0  0  0  0  0  0  0  0  0  0  0
   14.3310   -5.6220   61.2420 C   0  0  0  0  0  1  0  0  0  0  0  0
   12.6990   -3.9660   60.3830 C   0  0  0  0  0  3  0  0  0  0  0  0
   12.2870   -2.7390   59.8100 C   0  0  0  0  0  0  0  0  0  0  0  0
   13.3060   -1.8260   59.4620 C   0  0  0  0  0  3  0  0  0  0  0  0
   14.6490   -2.1160   59.6830 C   0  0  0  0  0  3  0  0  0  0  0  0
   10.8190   -2.4150   59.5850 C   0  0  0  0  0  0  0  0  0  0  0  0
    9.8230   -3.4260   59.5980 C   0  0  0  0  0  3  0  0  0  0  0  0
    8.4760   -3.1210   59.3950 C   0  0  0  0  0  3  0  0  0  0  0  0
    8.0760   -1.8080   59.1730 C   0  0  0  0  0  3  0  0  0  0  0  0
    9.0240   -0.7870   59.1570 C   0  0  0  0  0  0  0  0  0  0  0  0
   10.3790   -1.0860   59.3570 C   0  0  0  0  0  3  0  0  0  0  0  0
    8.5100    0.9090   58.8650 S   0  0  0  0  0  0  0  0  0  0  0  0
    9.2080    1.7810   59.9220 O   0  0  0  0  0  0  0  0  0  0  0  0
    7.0660    1.0410   59.3790 O   0  0  0  0  0  0  0  0  0  0  0  0
    8.6210    1.7640   57.2600 C   0  0  0  0  0  2  0  0  0  0  0  0
    7.3460    2.5440   56.9630 C   0  0  0  0  0  1  0  0  0  0  0  0
   17.8790   -3.8280   58.4430 C   0  0  2  0  0  3  0  0  0  0  0  0
   18.1430   -5.2060   59.0470 C   0  0  0  0  0  0  0  0  0  0  0  0
   18.0800   -6.4240   58.3400 C   0  0  0  0  0  0  0  0  0  0  0  0
   17.7300   -6.6720   56.9020 C   0  0  0  0  0  1  0  0  0  0  0  0
   18.4570   -7.6860   59.3860 S   0  0  0  0  0  0  0  0  0  0  0  0
   18.7160   -6.7280   60.7340 C   0  0  0  0  0  0  0  0  0  0  0  0
   19.1120   -7.2240   62.0850 C   0  0  0  0  0  1  0  0  0  0  0  0
   18.5110   -5.4010   60.3940 C   0  0  0  0  0  3  0  0  0  0  0  0
   19.1000   -3.3080   57.6510 C   0  0  0  0  0  2  0  0  0  0  0  0
   19.1840   -3.9270   56.2550 C   0  0  0  0  0  1  0  0  0  0  0  0
  1  2  1  0  0  0  0
  1 11  1  0  0  0  0
  2  5  1  0  0  0  0
  3  2  2  0  0  0  0
  4  2  2  0  0  0  0
  5  6  2  0  0  0  0
  5 10  1  0  0  0  0
  6  7  1  0  0  0  0
  7  9  1  0  0  0  0
  7  8  1  0  0  0  0
 10  9  2  0  0  0  0
 12 11  1  0  0  0  0
 12 13  1  0  0  0  0
 13 14  1  0  0  0  0
 15 13  2  0  0  0  0
 16 15  1  0  0  0  0
 17 18  1  0  0  0  0
 17 16  2  0  0  0  0
 18 12  2  0  0  0  0
 19 20  1  0  0  0  0
 19 16  1  0  0  0  0
 21 20  2  0  0  0  0
 22 21  1  0  0  0  0
 23 22  2  0  0  0  0
 23 24  1  0  0  0  0
 24 19  2  0  0  0  0
 25 23  1  0  0  0  0
 25 27  2  0  0  0  0
 25 26  2  0  0  0  0
 28 25  1  0  0  0  0
 29 28  1  0  0  0  0
 30 38  1  1  0  0  0
 30 31  1  0  0  0  0
 30  1  1  0  0  0  0
 31 37  1  0  0  0  0
 32 31  2  0  0  0  0
 32 34  1  0  0  0  0
 33 32  1  0  0  0  0
 34 35  1  0  0  0  0
 35 36  1  0  0  0  0
 37 35  2  0  0  0  0
 39 38  1  0  0  0  0
M  END
>  <POSE>
4

>  <SCORE>
-9.963

>  <RMSD_LB_BP>
2.380

>  <RMSD_UB_BP>
4.483

$$$$
/content/1PQ6_Docking/DOCKING/CLC-0000185/CLC-0000185_output.pdbqt
 OpenBabel03072503353D

 39 42  0  0  1  0  0  0  0  0999 V2000
   17.6510   -4.6190   59.6740 N   0  0  0  0  0  0  0  0  0  0  0  0
   18.8370   -5.0290   60.9670 S   0  0  0  0  0  0  0  0  0  0  0  0
   20.1280   -5.5220   60.3040 O   0  0  0  0  0  0  0  0  0  0  0  0
   18.3110   -6.2930   61.6640 O   0  0  0  0  0  0  0  0  0  0  0  0
   19.2090   -3.7310   62.1420 C   0  0  0  0  0  0  0  0  0  0  0  0
   20.3500   -3.6280   62.9030 C   0  0  0  0  0  3  0  0  0  0  0  0
   20.2200   -2.5350   63.6730 N   0  0  0  0  0  0  0  0  0  0  0  0
   21.1740   -2.0310   64.6530 C   0  0  0  0  0  1  0  0  0  0  0  0
   19.0240   -1.9970   63.3680 C   0  0  0  0  0  3  0  0  0  0  0  0
   18.3740   -2.7110   62.4270 N   0  0  0  0  0  0  0  0  0  0  0  0
   16.5800   -5.6390   59.6080 C   0  0  0  0  0  2  0  0  0  0  0  0
   15.2150   -5.0090   59.8160 C   0  0  0  0  0  0  0  0  0  0  0  0
   14.4090   -5.1780   60.9740 C   0  0  0  0  0  0  0  0  0  0  0  0
   14.7900   -6.0230   62.1690 C   0  0  0  0  0  1  0  0  0  0  0  0
   13.1690   -4.5170   61.0500 C   0  0  0  0  0  3  0  0  0  0  0  0
   12.6860   -3.6850   60.0120 C   0  0  0  0  0  0  0  0  0  0  0  0
   13.5060   -3.5500   58.8720 C   0  0  0  0  0  3  0  0  0  0  0  0
   14.7350   -4.1980   58.7790 C   0  0  0  0  0  3  0  0  0  0  0  0
   11.3520   -2.9640   60.1220 C   0  0  0  0  0  0  0  0  0  0  0  0
   10.2030   -3.6000   60.6610 C   0  0  0  0  0  3  0  0  0  0  0  0
    8.9820   -2.9310   60.7610 C   0  0  0  0  0  3  0  0  0  0  0  0
    8.8630   -1.6140   60.3330 C   0  0  0  0  0  3  0  0  0  0  0  0
    9.9690   -0.9540   59.8010 C   0  0  0  0  0  0  0  0  0  0  0  0
   11.1970   -1.6200   59.6940 C   0  0  0  0  0  3  0  0  0  0  0  0
    9.8150    0.7470   59.2430 S   0  0  0  0  0  0  0  0  0  0  0  0
   11.0160    1.0320   58.3260 O   0  0  0  0  0  0  0  0  0  0  0  0
   10.2090    1.6500   60.4230 O   0  0  0  0  0  0  0  0  0  0  0  0
    8.3260    1.4490   58.4630 C   0  0  0  0  0  2  0  0  0  0  0  0
    8.6060    1.8740   57.0260 C   0  0  0  0  0  1  0  0  0  0  0  0
   18.1450   -4.2630   58.3100 C   0  0  2  0  0  3  0  0  0  0  0  0
   19.0130   -5.3430   57.6670 C   0  0  0  0  0  0  0  0  0  0  0  0
   18.6420   -6.6940   57.5140 C   0  0  0  0  0  0  0  0  0  0  0  0
   17.3820   -7.3890   57.9420 C   0  0  0  0  0  1  0  0  0  0  0  0
   19.8870   -7.5220   56.7430 S   0  0  0  0  0  0  0  0  0  0  0  0
   20.9030   -6.2020   56.5800 C   0  0  0  0  0  0  0  0  0  0  0  0
   22.2510   -6.2220   55.9400 C   0  0  0  0  0  1  0  0  0  0  0  0
   20.2900   -5.0860   57.1260 C   0  0  0  0  0  3  0  0  0  0  0  0
   18.8100   -2.8710   58.2260 C   0  0  0  0  0  2  0  0  0  0  0  0
   17.9600   -1.7890   58.8940 C   0  0  0  0  0  1  0  0  0  0  0  0
  1  2  1  0  0  0  0
  2  4  2  0  0  0  0
  2  5  1  0  0  0  0
  3  2  2  0  0  0  0
  5 10  1  0  0  0  0
  5  6  2  0  0  0  0
  6  7  1  0  0  0  0
  7  8  1  0  0  0  0
  9  7  1  0  0  0  0
 10  9  2  0  0  0  0
 11  1  1  0  0  0  0
 11 12  1  0  0  0  0
 12 13  1  0  0  0  0
 13 15  2  0  0  0  0
 13 14  1  0  0  0  0
 16 19  1  0  0  0  0
 16 15  1  0  0  0  0
 17 16  2  0  0  0  0
 18 17  1  0  0  0  0
 18 12  2  0  0  0  0
 19 20  1  0  0  0  0
 20 21  2  0  0  0  0
 22 21  1  0  0  0  0
 23 22  2  0  0  0  0
 24 23  1  0  0  0  0
 24 19  2  0  0  0  0
 25 23  1  0  0  0  0
 25 27  2  0  0  0  0
 26 25  2  0  0  0  0
 28 25  1  0  0  0  0
 29 28  1  0  0  0  0
 30 38  1  1  0  0  0
 30  1  1  0  0  0  0
 31 30  1  0  0  0  0
 32 31  2  0  0  0  0
 32 33  1  0  0  0  0
 34 32  1  0  0  0  0
 35 34  1  0  0  0  0
 35 37  2  0  0  0  0
 36 35  1  0  0  0  0
 37 31  1  0  0  0  0
 38 39  1  0  0  0  0
M  END
>  <POSE>
5

>  <SCORE>
-9.598

>  <RMSD_LB_BP>
1.771

>  <RMSD_UB_BP>
4.674

$$$$
/content/1PQ6_Docking/DOCKING/CLC-0000185/CLC-0000185_output.pdbqt
 OpenBabel03072503353D

 39 42  0  0  1  0  0  0  0  0999 V2000
   17.9120   -3.7920   60.3510 N   0  0  0  0  0  0  0  0  0  0  0  0
   18.5720   -2.2040   60.8870 S   0  0  0  0  0  0  0  0  0  0  0  0
   17.4990   -1.1320   60.6650 O   0  0  0  0  0  0  0  0  0  0  0  0
   19.6560   -1.8110   59.8720 O   0  0  0  0  0  0  0  0  0  0  0  0
   19.1790   -2.1230   62.5690 C   0  0  0  0  0  0  0  0  0  0  0  0
   20.3730   -2.6320   63.0260 C   0  0  0  0  0  3  0  0  0  0  0  0
   20.4310   -2.3910   64.3460 N   0  0  0  0  0  0  0  0  0  0  0  0
   21.5030   -2.7610   65.2600 C   0  0  0  0  0  1  0  0  0  0  0  0
   19.2930   -1.7460   64.6640 C   0  0  0  0  0  3  0  0  0  0  0  0
   18.4980   -1.5650   63.5890 N   0  0  0  0  0  0  0  0  0  0  0  0
   16.9730   -4.3330   61.3600 C   0  0  0  0  0  2  0  0  0  0  0  0
   15.5350   -4.0220   60.9870 C   0  0  0  0  0  0  0  0  0  0  0  0
   14.4360   -4.9020   61.1830 C   0  0  0  0  0  0  0  0  0  0  0  0
   14.5410   -6.2870   61.7820 C   0  0  0  0  0  1  0  0  0  0  0  0
   13.1450   -4.4810   60.8130 C   0  0  0  0  0  3  0  0  0  0  0  0
   12.8930   -3.2080   60.2490 C   0  0  0  0  0  0  0  0  0  0  0  0
   14.0090   -2.3650   60.0570 C   0  0  0  0  0  3  0  0  0  0  0  0
   15.2930   -2.7660   60.4150 C   0  0  0  0  0  3  0  0  0  0  0  0
   11.4880   -2.7640   59.8740 C   0  0  0  0  0  0  0  0  0  0  0  0
   10.4360   -3.6980   59.6890 C   0  0  0  0  0  3  0  0  0  0  0  0
    9.1480   -3.2830   59.3470 C   0  0  0  0  0  3  0  0  0  0  0  0
    8.8630   -1.9320   59.1810 C   0  0  0  0  0  3  0  0  0  0  0  0
    9.8690   -0.9850   59.3590 C   0  0  0  0  0  0  0  0  0  0  0  0
   11.1650   -1.3930   59.6970 C   0  0  0  0  0  3  0  0  0  0  0  0
    9.5040    0.7610   59.1390 S   0  0  0  0  0  0  0  0  0  0  0  0
   10.5000    1.3040   58.1020 O   0  0  0  0  0  0  0  0  0  0  0  0
   10.0400    1.4970   60.3780 O   0  0  0  0  0  0  0  0  0  0  0  0
    7.8550    1.4330   58.7500 C   0  0  0  0  0  2  0  0  0  0  0  0
    7.8980    2.3040   57.5010 C   0  0  0  0  0  1  0  0  0  0  0  0
   18.8470   -4.8480   59.8590 C   0  0  2  0  0  3  0  0  0  0  0  0
   19.0290   -4.8540   58.3430 C   0  0  0  0  0  0  0  0  0  0  0  0
   18.3930   -3.9680   57.4490 C   0  0  0  0  0  0  0  0  0  0  0  0
   17.4080   -2.8720   57.7360 C   0  0  0  0  0  1  0  0  0  0  0  0
   18.8920   -4.3180   55.8820 S   0  0  0  0  0  0  0  0  0  0  0  0
   19.9170   -5.5740   56.2980 C   0  0  0  0  0  0  0  0  0  0  0  0
   20.7370   -6.3750   55.3420 C   0  0  0  0  0  1  0  0  0  0  0  0
   19.8900   -5.7460   57.6720 C   0  0  0  0  0  3  0  0  0  0  0  0
   18.5400   -6.2620   60.4030 C   0  0  0  0  0  2  0  0  0  0  0  0
   17.6670   -7.0690   59.4420 C   0  0  0  0  0  1  0  0  0  0  0  0
  1  2  1  0  0  0  0
  1 11  1  0  0  0  0
  2  5  1  0  0  0  0
  3  2  2  0  0  0  0
  4  2  2  0  0  0  0
  5  6  2  0  0  0  0
  5 10  1  0  0  0  0
  6  7  1  0  0  0  0
  7  9  1  0  0  0  0
  7  8  1  0  0  0  0
 10  9  2  0  0  0  0
 12 13  1  0  0  0  0
 12 11  1  0  0  0  0
 13 14  1  0  0  0  0
 15 13  2  0  0  0  0
 16 15  1  0  0  0  0
 17 16  2  0  0  0  0
 17 18  1  0  0  0  0
 18 12  2  0  0  0  0
 19 16  1  0  0  0  0
 20 19  2  0  0  0  0
 21 20  1  0  0  0  0
 22 21  2  0  0  0  0
 22 23  1  0  0  0  0
 23 24  2  0  0  0  0
 24 19  1  0  0  0  0
 25 23  1  0  0  0  0
 25 27  2  0  0  0  0
 26 25  2  0  0  0  0
 28 25  1  0  0  0  0
 29 28  1  0  0  0  0
 30  1  1  0  0  0  0
 30 38  1  6  0  0  0
 31 30  1  0  0  0  0
 32 33  1  0  0  0  0
 32 31  2  0  0  0  0
 34 35  1  0  0  0  0
 34 32  1  0  0  0  0
 35 37  2  0  0  0  0
 36 35  1  0  0  0  0
 37 31  1  0  0  0  0
 39 38  1  0  0  0  0
M  END
>  <POSE>
6

>  <SCORE>
-9.347

>  <RMSD_LB_BP>
2.315

>  <RMSD_UB_BP>
5.031

$$$$
/content/1PQ6_Docking/DOCKING/CLC-0000185/CLC-0000185_output.pdbqt
 OpenBabel03072503353D

 39 42  0  0  1  0  0  0  0  0999 V2000
   17.5410   -3.7930   59.7490 N   0  0  0  0  0  0  0  0  0  0  0  0
   18.5500   -3.4510   58.2960 S   0  0  0  0  0  0  0  0  0  0  0  0
   19.8490   -2.7780   58.7530 O   0  0  0  0  0  0  0  0  0  0  0  0
   17.8420   -2.3280   57.5220 O   0  0  0  0  0  0  0  0  0  0  0  0
   18.9220   -4.8480   57.2410 C   0  0  0  0  0  0  0  0  0  0  0  0
   20.1660   -5.2010   56.7710 C   0  0  0  0  0  3  0  0  0  0  0  0
   20.0060   -6.2840   55.9920 N   0  0  0  0  0  0  0  0  0  0  0  0
   21.0440   -7.0050   55.2660 C   0  0  0  0  0  1  0  0  0  0  0  0
   18.6900   -6.5690   56.0050 C   0  0  0  0  0  3  0  0  0  0  0  0
   17.9930   -5.7020   56.7670 N   0  0  0  0  0  0  0  0  0  0  0  0
   16.9400   -2.5450   60.2710 C   0  0  0  0  0  2  0  0  0  0  0  0
   15.4320   -2.5510   60.0940 C   0  0  0  0  0  0  0  0  0  0  0  0
   14.5760   -3.6260   60.4560 C   0  0  0  0  0  0  0  0  0  0  0  0
   15.0430   -4.9300   61.0620 C   0  0  0  0  0  1  0  0  0  0  0  0
   13.1880   -3.4930   60.2590 C   0  0  0  0  0  3  0  0  0  0  0  0
   12.6060   -2.3260   59.7100 C   0  0  0  0  0  0  0  0  0  0  0  0
   13.4880   -1.2850   59.3500 C   0  0  0  0  0  3  0  0  0  0  0  0
   14.8630   -1.3980   59.5360 C   0  0  0  0  0  3  0  0  0  0  0  0
   11.1030   -2.1960   59.5230 C   0  0  0  0  0  0  0  0  0  0  0  0
   10.2510   -3.3310   59.5210 C   0  0  0  0  0  3  0  0  0  0  0  0
    8.8710   -3.2030   59.3520 C   0  0  0  0  0  3  0  0  0  0  0  0
    8.2950   -1.9490   59.1820 C   0  0  0  0  0  3  0  0  0  0  0  0
    9.0980   -0.8100   59.1830 C   0  0  0  0  0  0  0  0  0  0  0  0
   10.4840   -0.9300   59.3480 C   0  0  0  0  0  3  0  0  0  0  0  0
    8.3550    0.8110   58.9590 S   0  0  0  0  0  0  0  0  0  0  0  0
    8.9620    1.7370   60.0260 O   0  0  0  0  0  0  0  0  0  0  0  0
    6.9220    0.7340   59.5100 O   0  0  0  0  0  0  0  0  0  0  0  0
    8.3080    1.7180   57.3790 C   0  0  0  0  0  2  0  0  0  0  0  0
    7.1300    2.6830   57.3360 C   0  0  0  0  0  1  0  0  0  0  0  0
   18.1030   -4.6280   60.8530 C   0  0  2  0  0  3  0  0  0  0  0  0
   18.9560   -3.8430   61.8470 C   0  0  0  0  0  0  0  0  0  0  0  0
   18.4610   -2.8930   62.7630 C   0  0  0  0  0  0  0  0  0  0  0  0
   17.0540   -2.4130   62.9680 C   0  0  0  0  0  1  0  0  0  0  0  0
   19.7410   -2.2880   63.6720 S   0  0  0  0  0  0  0  0  0  0  0  0
   20.9290   -3.2120   62.9410 C   0  0  0  0  0  0  0  0  0  0  0  0
   22.3810   -3.1850   63.2870 C   0  0  0  0  0  1  0  0  0  0  0  0
   20.3500   -4.0130   61.9710 C   0  0  0  0  0  3  0  0  0  0  0  0
   18.8210   -5.9080   60.3690 C   0  0  0  0  0  2  0  0  0  0  0  0
   17.8400   -7.0490   60.0990 C   0  0  0  0  0  1  0  0  0  0  0  0
  1 11  1  0  0  0  0
  1 30  1  0  0  0  0
  2  3  2  0  0  0  0
  2  1  1  0  0  0  0
  4  2  2  0  0  0  0
  5  2  1  0  0  0  0
  6  5  2  0  0  0  0
  7  9  1  0  0  0  0
  7  6  1  0  0  0  0
  8  7  1  0  0  0  0
  9 10  2  0  0  0  0
 10  5  1  0  0  0  0
 12 11  1  0  0  0  0
 12 13  1  0  0  0  0
 13 14  1  0  0  0  0
 15 13  2  0  0  0  0
 16 15  1  0  0  0  0
 17 18  1  0  0  0  0
 17 16  2  0  0  0  0
 18 12  2  0  0  0  0
 19 16  1  0  0  0  0
 20 19  1  0  0  0  0
 21 20  2  0  0  0  0
 22 23  2  0  0  0  0
 22 21  1  0  0  0  0
 23 24  1  0  0  0  0
 24 19  2  0  0  0  0
 25 23  1  0  0  0  0
 25 27  2  0  0  0  0
 25 26  2  0  0  0  0
 28 25  1  0  0  0  0
 29 28  1  0  0  0  0
 30 38  1  6  0  0  0
 30 31  1  0  0  0  0
 31 37  1  0  0  0  0
 31 32  2  0  0  0  0
 32 33  1  0  0  0  0
 32 34  1  0  0  0  0
 35 36  1  0  0  0  0
 35 34  1  0  0  0  0
 37 35  2  0  0  0  0
 39 38  1  0  0  0  0
M  END
>  <POSE>
7

>  <SCORE>
-9.317

>  <RMSD_LB_BP>
1.891

>  <RMSD_UB_BP>
2.493

$$$$
/content/1PQ6_Docking/DOCKING/CLC-0000185/CLC-0000185_output.pdbqt
 OpenBabel03072503353D

 39 42  0  0  1  0  0  0  0  0999 V2000
   17.5830   -6.0340   58.8360 N   0  0  0  0  0  0  0  0  0  0  0  0
   18.1140   -6.8230   57.3060 S   0  0  0  0  0  0  0  0  0  0  0  0
   17.4070   -6.1350   56.1330 O   0  0  0  0  0  0  0  0  0  0  0  0
   17.4950   -8.2290   57.2960 O   0  0  0  0  0  0  0  0  0  0  0  0
   19.8790   -6.8750   57.0110 C   0  0  0  0  0  0  0  0  0  0  0  0
   20.6770   -5.8070   56.6760 C   0  0  0  0  0  3  0  0  0  0  0  0
   21.9260   -6.2760   56.5130 N   0  0  0  0  0  0  0  0  0  0  0  0
   23.1090   -5.5130   56.1400 C   0  0  0  0  0  1  0  0  0  0  0  0
   21.8670   -7.5990   56.7540 C   0  0  0  0  0  3  0  0  0  0  0  0
   20.6180   -8.0020   57.0640 N   0  0  0  0  0  0  0  0  0  0  0  0
   17.5200   -4.5640   58.6690 C   0  0  0  0  0  2  0  0  0  0  0  0
   16.1430   -4.0350   59.0250 C   0  0  0  0  0  0  0  0  0  0  0  0
   15.8500   -2.6800   59.3390 C   0  0  0  0  0  0  0  0  0  0  0  0
   16.8720   -1.5660   59.3760 C   0  0  0  0  0  1  0  0  0  0  0  0
   14.5210   -2.3150   59.6290 C   0  0  0  0  0  3  0  0  0  0  0  0
   13.4580   -3.2480   59.6230 C   0  0  0  0  0  0  0  0  0  0  0  0
   13.7870   -4.5860   59.3200 C   0  0  0  0  0  3  0  0  0  0  0  0
   15.0950   -4.9660   59.0310 C   0  0  0  0  0  3  0  0  0  0  0  0
   12.0270   -2.8300   59.9210 C   0  0  0  0  0  0  0  0  0  0  0  0
   11.1040   -3.7150   60.5360 C   0  0  0  0  0  3  0  0  0  0  0  0
    9.7930   -3.3240   60.8090 C   0  0  0  0  0  3  0  0  0  0  0  0
    9.3570   -2.0440   60.4840 C   0  0  0  0  0  3  0  0  0  0  0  0
   10.2350   -1.1440   59.8830 C   0  0  0  0  0  0  0  0  0  0  0  0
   11.5510   -1.5310   59.6020 C   0  0  0  0  0  3  0  0  0  0  0  0
    9.6710    0.5080   59.4570 S   0  0  0  0  0  0  0  0  0  0  0  0
   10.5790    1.0180   58.3260 O   0  0  0  0  0  0  0  0  0  0  0  0
   10.1470    1.4520   60.5740 O   0  0  0  0  0  0  0  0  0  0  0  0
    7.9500    0.9410   59.0440 C   0  0  0  0  0  2  0  0  0  0  0  0
    7.8980    2.0450   57.9950 C   0  0  0  0  0  1  0  0  0  0  0  0
   18.2440   -6.4060   60.1230 C   0  0  2  0  0  3  0  0  0  0  0  0
   18.4280   -5.2330   61.0830 C   0  0  0  0  0  0  0  0  0  0  0  0
   17.4450   -4.7540   61.9730 C   0  0  0  0  0  0  0  0  0  0  0  0
   16.0350   -5.2270   62.1760 C   0  0  0  0  0  1  0  0  0  0  0  0
   18.0790   -3.4660   62.8490 S   0  0  0  0  0  0  0  0  0  0  0  0
   19.5930   -3.4950   62.1380 C   0  0  0  0  0  0  0  0  0  0  0  0
   20.7220   -2.5760   62.4680 C   0  0  0  0  0  1  0  0  0  0  0  0
   19.6340   -4.5120   61.1990 C   0  0  0  0  0  3  0  0  0  0  0  0
   19.5510   -7.2120   59.9470 C   0  0  0  0  0  2  0  0  0  0  0  0
   19.3700   -8.6850   60.3140 C   0  0  0  0  0  1  0  0  0  0  0  0
  1 30  1  0  0  0  0
  2  1  1  0  0  0  0
  3  2  2  0  0  0  0
  4  2  2  0  0  0  0
  5 10  1  0  0  0  0
  5  2  1  0  0  0  0
  6  5  2  0  0  0  0
  7  6  1  0  0  0  0
  7  9  1  0  0  0  0
  8  7  1  0  0  0  0
  9 10  2  0  0  0  0
 11  1  1  0  0  0  0
 11 12  1  0  0  0  0
 12 18  2  0  0  0  0
 12 13  1  0  0  0  0
 13 14  1  0  0  0  0
 13 15  2  0  0  0  0
 16 15  1  0  0  0  0
 16 19  1  0  0  0  0
 17 16  2  0  0  0  0
 18 17  1  0  0  0  0
 19 20  1  0  0  0  0
 20 21  2  0  0  0  0
 22 21  1  0  0  0  0
 23 22  2  0  0  0  0
 24 23  1  0  0  0  0
 24 19  2  0  0  0  0
 25 23  1  0  0  0  0
 25 27  2  0  0  0  0
 26 25  2  0  0  0  0
 28 25  1  0  0  0  0
 29 28  1  0  0  0  0
 30 38  1  6  0  0  0
 30 31  1  0  0  0  0
 31 37  1  0  0  0  0
 31 32  2  0  0  0  0
 32 33  1  0  0  0  0
 32 34  1  0  0  0  0
 35 36  1  0  0  0  0
 35 34  1  0  0  0  0
 37 35  2  0  0  0  0
 38 39  1  0  0  0  0
M  END
>  <POSE>
8

>  <SCORE>
-8.902

>  <RMSD_LB_BP>
1.870

>  <RMSD_UB_BP>
2.715

$$$$
/content/1PQ6_Docking/DOCKING/CLC-0000185/CLC-0000185_output.pdbqt
 OpenBabel03072503353D

 39 42  0  0  1  0  0  0  0  0999 V2000
   17.4980   -5.1760   60.1710 N   0  0  0  0  0  0  0  0  0  0  0  0
   18.3020   -6.6290   59.4720 S   0  0  0  0  0  0  0  0  0  0  0  0
   17.2200   -7.5810   58.9520 O   0  0  0  0  0  0  0  0  0  0  0  0
   18.9010   -7.4120   60.6510 O   0  0  0  0  0  0  0  0  0  0  0  0
   19.5170   -6.3260   58.1940 C   0  0  0  0  0  0  0  0  0  0  0  0
   20.7540   -6.9190   58.0930 C   0  0  0  0  0  3  0  0  0  0  0  0
   21.3630   -6.3950   57.0160 N   0  0  0  0  0  0  0  0  0  0  0  0
   22.6970   -6.7080   56.5210 C   0  0  0  0  0  1  0  0  0  0  0  0
   20.4970   -5.5100   56.4850 C   0  0  0  0  0  3  0  0  0  0  0  0
   19.3480   -5.4430   57.1890 N   0  0  0  0  0  0  0  0  0  0  0  0
   16.9060   -4.3430   59.0990 C   0  0  0  0  0  2  0  0  0  0  0  0
   15.4480   -4.0390   59.3890 C   0  0  0  0  0  0  0  0  0  0  0  0
   14.6390   -4.7480   60.3170 C   0  0  0  0  0  0  0  0  0  0  0  0
   15.1100   -5.9210   61.1470 C   0  0  0  0  0  1  0  0  0  0  0  0
   13.3030   -4.3470   60.5090 C   0  0  0  0  0  3  0  0  0  0  0  0
   12.7270   -3.2610   59.8090 C   0  0  0  0  0  0  0  0  0  0  0  0
   13.5550   -2.5880   58.8860 C   0  0  0  0  0  3  0  0  0  0  0  0
   14.8790   -2.9710   58.6820 C   0  0  0  0  0  3  0  0  0  0  0  0
   11.2870   -2.8320   60.0450 C   0  0  0  0  0  0  0  0  0  0  0  0
   10.3440   -3.6960   60.6590 C   0  0  0  0  0  3  0  0  0  0  0  0
    9.0240   -3.2950   60.8750 C   0  0  0  0  0  3  0  0  0  0  0  0
    8.6010   -2.0270   60.4910 C   0  0  0  0  0  3  0  0  0  0  0  0
    9.5000   -1.1490   59.8880 C   0  0  0  0  0  0  0  0  0  0  0  0
   10.8250   -1.5460   59.6640 C   0  0  0  0  0  3  0  0  0  0  0  0
    8.9530    0.4880   59.3860 S   0  0  0  0  0  0  0  0  0  0  0  0
    9.5670    1.4920   60.3750 O   0  0  0  0  0  0  0  0  0  0  0  0
    7.4800    0.6230   59.8060 O   0  0  0  0  0  0  0  0  0  0  0  0
    9.1280    1.1670   57.7040 C   0  0  0  0  0  2  0  0  0  0  0  0
    8.0130    2.1580   57.3930 C   0  0  0  0  0  1  0  0  0  0  0  0
   18.2310   -4.3380   61.1670 C   0  0  2  0  0  3  0  0  0  0  0  0
   18.4370   -2.8910   60.7230 C   0  0  0  0  0  0  0  0  0  0  0  0
   18.0370   -1.7560   61.4580 C   0  0  0  0  0  0  0  0  0  0  0  0
   17.3230   -1.6780   62.7750 C   0  0  0  0  0  1  0  0  0  0  0  0
   18.4740   -0.3710   60.6080 S   0  0  0  0  0  0  0  0  0  0  0  0
   19.1770   -1.1700   59.3160 C   0  0  0  0  0  0  0  0  0  0  0  0
   19.8110   -0.5140   58.1350 C   0  0  0  0  0  1  0  0  0  0  0  0
   19.0840   -2.5370   59.5220 C   0  0  0  0  0  3  0  0  0  0  0  0
   19.5450   -4.9720   61.6750 C   0  0  0  0  0  2  0  0  0  0  0  0
   20.2960   -4.0470   62.6330 C   0  0  0  0  0  1  0  0  0  0  0  0
  1 30  1  0  0  0  0
  2  1  1  0  0  0  0
  2  4  2  0  0  0  0
  3  2  2  0  0  0  0
  5  2  1  0  0  0  0
  6  5  2  0  0  0  0
  7  6  1  0  0  0  0
  8  7  1  0  0  0  0
  9  7  1  0  0  0  0
  9 10  2  0  0  0  0
 10  5  1  0  0  0  0
 11 12  1  0  0  0  0
 11  1  1  0  0  0  0
 12 13  1  0  0  0  0
 13 15  2  0  0  0  0
 13 14  1  0  0  0  0
 16 19  1  0  0  0  0
 16 15  1  0  0  0  0
 17 16  2  0  0  0  0
 18 17  1  0  0  0  0
 18 12  2  0  0  0  0
 19 20  1  0  0  0  0
 20 21  2  0  0  0  0
 22 21  1  0  0  0  0
 23 22  2  0  0  0  0
 24 23  1  0  0  0  0
 24 19  2  0  0  0  0
 25 27  2  0  0  0  0
 25 23  1  0  0  0  0
 25 26  2  0  0  0  0
 28 25  1  0  0  0  0
 29 28  1  0  0  0  0
 30 38  1  6  0  0  0
 31 30  1  0  0  0  0
 31 32  2  0  0  0  0
 32 33  1  0  0  0  0
 34 32  1  0  0  0  0
 35 37  2  0  0  0  0
 35 34  1  0  0  0  0
 36 35  1  0  0  0  0
 37 31  1  0  0  0  0
 38 39  1  0  0  0  0
M  END
>  <POSE>
9

>  <SCORE>
-8.858

>  <RMSD_LB_BP>
1.495

>  <RMSD_UB_BP>
2.518

$$$$
