/content/4EXS_VS/DOCKING/CLC-0000193/CLC-0000193_output.pdbqt
 OpenBabel03062504413D

 37 40  0  0  1  0  0  0  0  0999 V2000
   38.9440   14.7450   -4.1660 N   0  0  0  0  0  0  0  0  0  0  0  0
   38.0560   13.4920   -3.2380 S   0  0  0  0  0  0  0  0  0  0  0  0
   38.4290   12.1550   -3.8950 O   0  0  0  0  0  0  0  0  0  0  0  0
   38.7390   13.3780   -1.8660 O   0  0  0  0  0  0  0  0  0  0  0  0
   36.2740   13.5480   -3.1380 C   0  0  0  0  0  0  0  0  0  0  0  0
   35.5310   14.4170   -2.3730 C   0  0  0  0  0  3  0  0  0  0  0  0
   34.2370   14.1010   -2.5500 N   0  0  0  0  0  0  0  0  0  0  0  0
   33.0810   14.7490   -1.9450 C   0  0  0  0  0  1  0  0  0  0  0  0
   34.2160   13.0570   -3.4030 C   0  0  0  0  0  3  0  0  0  0  0  0
   35.4570   12.6880   -3.7800 N   0  0  0  0  0  0  0  0  0  0  0  0
   40.1650   14.1870   -4.8170 C   0  0  0  0  0  2  0  0  0  0  0  0
   41.4820   14.9170   -4.5150 C   0  0  0  0  0  0  0  0  0  0  0  0
   42.7130   14.6710   -5.1970 C   0  0  0  0  0  0  0  0  0  0  0  0
   42.9130   13.6520   -6.2970 C   0  0  0  0  0  1  0  0  0  0  0  0
   43.8690   15.3910   -4.8330 C   0  0  0  0  0  3  0  0  0  0  0  0
   43.8710   16.3460   -3.7940 C   0  0  0  0  0  0  0  0  0  0  0  0
   42.6570   16.5430   -3.1120 C   0  0  0  0  0  3  0  0  0  0  0  0
   41.5050   15.8450   -3.4630 C   0  0  0  0  0  3  0  0  0  0  0  0
   45.1260   17.1110   -3.4140 C   0  0  0  0  0  0  0  0  0  0  0  0
   45.0630   18.4520   -2.9570 C   0  0  0  0  0  3  0  0  0  0  0  0
   46.2190   19.1550   -2.6090 C   0  0  0  0  0  3  0  0  0  0  0  0
   47.4680   18.5480   -2.7060 C   0  0  0  0  0  3  0  0  0  0  0  0
   47.5690   17.2320   -3.1520 C   0  0  0  0  0  0  0  0  0  0  0  0
   46.4120   16.5210   -3.5030 C   0  0  0  0  0  3  0  0  0  0  0  0
   49.1830   16.4590   -3.2910 S   0  0  0  0  0  0  0  0  0  0  0  0
   50.2300   17.5830   -3.3660 O   0  0  0  0  0  0  0  0  0  0  0  0
   49.8310   15.1780   -2.1810 C   0  0  0  0  0  1  0  0  0  0  0  0
   49.3150   15.9350   -4.7280 O   0  0  0  0  0  0  0  0  0  0  0  0
   38.0920   15.6660   -4.9800 C   0  0  1  0  0  3  0  0  0  0  0  0
   36.6920   15.9020   -4.3790 C   0  0  0  0  0  1  0  0  0  0  0  0
   38.7530   17.0260   -5.1420 C   0  0  0  0  0  0  0  0  0  0  0  0
   39.1230   17.8900   -4.0950 C   0  0  0  0  0  0  0  0  0  0  0  0
   38.9890   17.6760   -2.6190 C   0  0  0  0  0  1  0  0  0  0  0  0
   39.8070   19.2790   -4.7530 S   0  0  0  0  0  0  0  0  0  0  0  0
   39.6480   18.8100   -6.3570 C   0  0  0  0  0  0  0  0  0  0  0  0
   40.0740   19.6150   -7.5390 C   0  0  0  0  0  1  0  0  0  0  0  0
   39.0550   17.5580   -6.4080 C   0  0  0  0  0  3  0  0  0  0  0  0
  1  2  1  0  0  0  0
  2  5  1  0  0  0  0
  2  4  2  0  0  0  0
  3  2  2  0  0  0  0
  5  6  2  0  0  0  0
  7  6  1  0  0  0  0
  7  8  1  0  0  0  0
  9  7  1  0  0  0  0
 10  9  2  0  0  0  0
 10  5  1  0  0  0  0
 11 12  1  0  0  0  0
 11  1  1  0  0  0  0
 12 18  1  0  0  0  0
 13 15  1  0  0  0  0
 13 12  2  0  0  0  0
 14 13  1  0  0  0  0
 15 16  2  0  0  0  0
 16 19  1  0  0  0  0
 16 17  1  0  0  0  0
 18 17  2  0  0  0  0
 19 20  1  0  0  0  0
 20 21  2  0  0  0  0
 22 21  1  0  0  0  0
 23 22  2  0  0  0  0
 24 19  2  0  0  0  0
 24 23  1  0  0  0  0
 25 23  1  0  0  0  0
 25 27  1  0  0  0  0
 26 25  2  0  0  0  0
 28 25  2  0  0  0  0
 29 30  1  1  0  0  0
 29  1  1  0  0  0  0
 31 29  1  0  0  0  0
 31 32  2  0  0  0  0
 32 33  1  0  0  0  0
 34 32  1  0  0  0  0
 35 34  1  0  0  0  0
 36 35  1  0  0  0  0
 37 35  2  0  0  0  0
 37 31  1  0  0  0  0
M  END
>  <POSE>
1

>  <SCORE>
-7.838

>  <RMSD_LB_BP>
0.000

>  <RMSD_UB_BP>
0.000

$$$$
/content/4EXS_VS/DOCKING/CLC-0000193/CLC-0000193_output.pdbqt
 OpenBabel03062504413D

 37 40  0  0  1  0  0  0  0  0999 V2000
   55.3080   17.5260   -3.0590 N   0  0  0  0  0  0  0  0  0  0  0  0
   55.2700   19.3070   -3.2750 S   0  0  0  0  0  0  0  0  0  0  0  0
   56.7260   19.7690   -3.1130 O   0  0  0  0  0  0  0  0  0  0  0  0
   55.0110   19.5750   -4.7650 O   0  0  0  0  0  0  0  0  0  0  0  0
   54.2760   20.3190   -2.1900 C   0  0  0  0  0  0  0  0  0  0  0  0
   53.7700   19.9420   -0.9670 C   0  0  0  0  0  3  0  0  0  0  0  0
   53.0490   20.9740   -0.4980 N   0  0  0  0  0  0  0  0  0  0  0  0
   52.3250   21.0410    0.7650 C   0  0  0  0  0  1  0  0  0  0  0  0
   53.1220   21.9440   -1.4320 C   0  0  0  0  0  3  0  0  0  0  0  0
   53.8680   21.5690   -2.4910 N   0  0  0  0  0  0  0  0  0  0  0  0
   54.7850   16.8130   -4.2600 C   0  0  0  0  0  2  0  0  0  0  0  0
   53.2640   16.6010   -4.3100 C   0  0  0  0  0  0  0  0  0  0  0  0
   52.4810   16.6740   -5.5020 C   0  0  0  0  0  0  0  0  0  0  0  0
   53.0170   16.9850   -6.8810 C   0  0  0  0  0  1  0  0  0  0  0  0
   51.0870   16.4730   -5.4340 C   0  0  0  0  0  3  0  0  0  0  0  0
   50.4160   16.2200   -4.2190 C   0  0  0  0  0  0  0  0  0  0  0  0
   51.2040   16.1920   -3.0540 C   0  0  0  0  0  3  0  0  0  0  0  0
   52.5820   16.3820   -3.1040 C   0  0  0  0  0  3  0  0  0  0  0  0
   48.9140   16.0090   -4.1640 C   0  0  0  0  0  0  0  0  0  0  0  0
   48.3430   14.7190   -4.3200 C   0  0  0  0  0  3  0  0  0  0  0  0
   46.9610   14.5270   -4.2710 C   0  0  0  0  0  3  0  0  0  0  0  0
   46.1060   15.6060   -4.0670 C   0  0  0  0  0  3  0  0  0  0  0  0
   46.6310   16.8880   -3.9100 C   0  0  0  0  0  0  0  0  0  0  0  0
   48.0180   17.0880   -3.9580 C   0  0  0  0  0  3  0  0  0  0  0  0
   45.5230   18.2790   -3.6630 S   0  0  0  0  0  0  0  0  0  0  0  0
   45.9780   19.4060   -4.6040 O   0  0  0  0  0  0  0  0  0  0  0  0
   43.7120   18.2030   -3.7310 C   0  0  0  0  0  1  0  0  0  0  0  0
   45.9080   18.9350   -2.3280 O   0  0  0  0  0  0  0  0  0  0  0  0
   56.5470   16.9830   -2.4230 C   0  0  1  0  0  3  0  0  0  0  0  0
   56.5810   17.1550   -0.8920 C   0  0  0  0  0  1  0  0  0  0  0  0
   56.7110   15.4990   -2.7180 C   0  0  0  0  0  0  0  0  0  0  0  0
   57.4660   14.9490   -3.7700 C   0  0  0  0  0  0  0  0  0  0  0  0
   58.2890   15.6620   -4.7980 C   0  0  0  0  0  1  0  0  0  0  0  0
   57.3430   13.2720   -3.7070 S   0  0  0  0  0  0  0  0  0  0  0  0
   56.3440   13.2200   -2.3600 C   0  0  0  0  0  0  0  0  0  0  0  0
   55.8150   11.9770   -1.7250 C   0  0  0  0  0  1  0  0  0  0  0  0
   56.0860   14.5130   -1.9340 C   0  0  0  0  0  3  0  0  0  0  0  0
  1 29  1  0  0  0  0
  2  3  2  0  0  0  0
  2  1  1  0  0  0  0
  2  5  1  0  0  0  0
  4  2  2  0  0  0  0
  5  6  2  0  0  0  0
  6  7  1  0  0  0  0
  7  8  1  0  0  0  0
  9  7  1  0  0  0  0
 10  5  1  0  0  0  0
 10  9  2  0  0  0  0
 11  1  1  0  0  0  0
 12 11  1  0  0  0  0
 12 18  1  0  0  0  0
 13 15  1  0  0  0  0
 13 12  2  0  0  0  0
 14 13  1  0  0  0  0
 15 16  2  0  0  0  0
 16 19  1  0  0  0  0
 16 17  1  0  0  0  0
 18 17  2  0  0  0  0
 19 24  1  0  0  0  0
 20 21  1  0  0  0  0
 20 19  2  0  0  0  0
 21 22  2  0  0  0  0
 22 23  1  0  0  0  0
 23 25  1  0  0  0  0
 24 23  2  0  0  0  0
 25 28  2  0  0  0  0
 26 25  2  0  0  0  0
 27 25  1  0  0  0  0
 29 30  1  1  0  0  0
 31 29  1  0  0  0  0
 31 37  1  0  0  0  0
 32 34  1  0  0  0  0
 32 31  2  0  0  0  0
 33 32  1  0  0  0  0
 34 35  1  0  0  0  0
 35 37  2  0  0  0  0
 35 36  1  0  0  0  0
M  END
>  <POSE>
2

>  <SCORE>
-7.452

>  <RMSD_LB_BP>
7.689

>  <RMSD_UB_BP>
14.652

$$$$
/content/4EXS_VS/DOCKING/CLC-0000193/CLC-0000193_output.pdbqt
 OpenBabel03062504413D

 37 40  0  0  1  0  0  0  0  0999 V2000
   53.4500   17.0560   -4.9390 N   0  0  0  0  0  0  0  0  0  0  0  0
   54.1920   17.0420   -6.5720 S   0  0  0  0  0  0  0  0  0  0  0  0
   54.8060   15.6420   -6.7300 O   0  0  0  0  0  0  0  0  0  0  0  0
   53.0420   17.0060   -7.5900 O   0  0  0  0  0  0  0  0  0  0  0  0
   55.4670   18.2220   -6.9860 C   0  0  0  0  0  0  0  0  0  0  0  0
   56.5280   18.0060   -7.8340 C   0  0  0  0  0  3  0  0  0  0  0  0
   57.2700   19.1260   -7.8400 N   0  0  0  0  0  0  0  0  0  0  0  0
   58.4930   19.3680   -8.5940 C   0  0  0  0  0  1  0  0  0  0  0  0
   56.6600   19.9890   -7.0030 C   0  0  0  0  0  3  0  0  0  0  0  0
   55.5470   19.4600   -6.4560 N   0  0  0  0  0  0  0  0  0  0  0  0
   52.5680   15.8730   -4.7230 C   0  0  0  0  0  2  0  0  0  0  0  0
   51.0920   16.1780   -4.4270 C   0  0  0  0  0  0  0  0  0  0  0  0
   50.3840   15.6950   -3.2850 C   0  0  0  0  0  0  0  0  0  0  0  0
   50.9650   14.8030   -2.2100 C   0  0  0  0  0  1  0  0  0  0  0  0
   49.0240   16.0270   -3.1140 C   0  0  0  0  0  3  0  0  0  0  0  0
   48.3130   16.8100   -4.0480 C   0  0  0  0  0  0  0  0  0  0  0  0
   49.0210   17.2420   -5.1830 C   0  0  0  0  0  3  0  0  0  0  0  0
   50.3660   16.9280   -5.3640 C   0  0  0  0  0  3  0  0  0  0  0  0
   46.8480   17.1570   -3.8490 C   0  0  0  0  0  0  0  0  0  0  0  0
   46.4540   18.3060   -3.1170 C   0  0  0  0  0  3  0  0  0  0  0  0
   45.1050   18.6210   -2.9340 C   0  0  0  0  0  3  0  0  0  0  0  0
   44.1120   17.8070   -3.4700 C   0  0  0  0  0  3  0  0  0  0  0  0
   44.4620   16.6700   -4.1950 C   0  0  0  0  0  0  0  0  0  0  0  0
   45.8140   16.3470   -4.3830 C   0  0  0  0  0  3  0  0  0  0  0  0
   43.1770   15.6140   -4.8720 S   0  0  0  0  0  0  0  0  0  0  0  0
   42.7850   14.6050   -3.7810 O   0  0  0  0  0  0  0  0  0  0  0  0
   41.6490   16.1950   -5.6580 C   0  0  0  0  0  1  0  0  0  0  0  0
   43.8550   14.6380   -5.8450 O   0  0  0  0  0  0  0  0  0  0  0  0
   54.3650   17.4430   -3.8210 C   0  0  1  0  0  3  0  0  0  0  0  0
   53.6310   18.0260   -2.5970 C   0  0  0  0  0  1  0  0  0  0  0  0
   55.1790   16.2520   -3.3390 C   0  0  0  0  0  0  0  0  0  0  0  0
   56.5380   16.0180   -3.6170 C   0  0  0  0  0  0  0  0  0  0  0  0
   57.4890   16.8710   -4.3990 C   0  0  0  0  0  1  0  0  0  0  0  0
   57.0020   14.5750   -2.8870 S   0  0  0  0  0  0  0  0  0  0  0  0
   55.5040   14.2300   -2.2140 C   0  0  0  0  0  0  0  0  0  0  0  0
   55.1840   13.0280   -1.3900 C   0  0  0  0  0  1  0  0  0  0  0  0
   54.6110   15.2360   -2.5490 C   0  0  0  0  0  3  0  0  0  0  0  0
  1 11  1  0  0  0  0
  1 29  1  0  0  0  0
  2  1  1  0  0  0  0
  3  2  2  0  0  0  0
  4  2  2  0  0  0  0
  5  2  1  0  0  0  0
  5 10  1  0  0  0  0
  6  5  2  0  0  0  0
  7  6  1  0  0  0  0
  7  9  1  0  0  0  0
  8  7  1  0  0  0  0
  9 10  2  0  0  0  0
 11 12  1  0  0  0  0
 12 13  1  0  0  0  0
 13 15  2  0  0  0  0
 13 14  1  0  0  0  0
 16 19  1  0  0  0  0
 16 15  1  0  0  0  0
 17 16  2  0  0  0  0
 18 17  1  0  0  0  0
 18 12  2  0  0  0  0
 19 20  1  0  0  0  0
 20 21  2  0  0  0  0
 22 21  1  0  0  0  0
 23 22  2  0  0  0  0
 24 23  1  0  0  0  0
 24 19  2  0  0  0  0
 25 23  1  0  0  0  0
 25 26  2  0  0  0  0
 27 25  1  0  0  0  0
 28 25  2  0  0  0  0
 29 31  1  0  0  0  0
 29 30  1  1  0  0  0
 31 37  1  0  0  0  0
 32 31  2  0  0  0  0
 32 34  1  0  0  0  0
 33 32  1  0  0  0  0
 34 35  1  0  0  0  0
 35 36  1  0  0  0  0
 37 35  2  0  0  0  0
M  END
>  <POSE>
3

>  <SCORE>
-7.376

>  <RMSD_LB_BP>
7.059

>  <RMSD_UB_BP>
14.465

$$$$
/content/4EXS_VS/DOCKING/CLC-0000193/CLC-0000193_output.pdbqt
 OpenBabel03062504413D

 37 40  0  0  1  0  0  0  0  0999 V2000
   54.3360   17.0550   -2.4460 N   0  0  0  0  0  0  0  0  0  0  0  0
   54.4420   18.8450   -2.4190 S   0  0  0  0  0  0  0  0  0  0  0  0
   53.0050   19.3430   -2.6360 O   0  0  0  0  0  0  0  0  0  0  0  0
   54.7090   19.2590   -0.9630 O   0  0  0  0  0  0  0  0  0  0  0  0
   55.4760   19.6990   -3.5980 C   0  0  0  0  0  0  0  0  0  0  0  0
   56.6080   20.4250   -3.3070 C   0  0  0  0  0  3  0  0  0  0  0  0
   57.0640   20.9360   -4.4640 N   0  0  0  0  0  0  0  0  0  0  0  0
   58.2420   21.7720   -4.6540 C   0  0  0  0  0  1  0  0  0  0  0  0
   56.2100   20.5230   -5.4220 C   0  0  0  0  0  3  0  0  0  0  0  0
   55.2170   19.7620   -4.9200 N   0  0  0  0  0  0  0  0  0  0  0  0
   53.9010   16.5480   -3.7800 C   0  0  0  0  0  2  0  0  0  0  0  0
   52.3870   16.3850   -3.9780 C   0  0  0  0  0  0  0  0  0  0  0  0
   51.7160   16.5600   -5.2270 C   0  0  0  0  0  0  0  0  0  0  0  0
   52.3810   16.9460   -6.5290 C   0  0  0  0  0  1  0  0  0  0  0  0
   50.3170   16.3970   -5.2970 C   0  0  0  0  0  3  0  0  0  0  0  0
   49.5340   16.0840   -4.1660 C   0  0  0  0  0  0  0  0  0  0  0  0
   50.2120   15.9540   -2.9410 C   0  0  0  0  0  3  0  0  0  0  0  0
   51.5930   16.1060   -2.8560 C   0  0  0  0  0  3  0  0  0  0  0  0
   48.0280   15.9130   -4.2590 C   0  0  0  0  0  0  0  0  0  0  0  0
   47.4470   14.6770   -4.6400 C   0  0  0  0  0  3  0  0  0  0  0  0
   46.0610   14.5230   -4.7260 C   0  0  0  0  0  3  0  0  0  0  0  0
   45.2150   15.5900   -4.4390 C   0  0  0  0  0  3  0  0  0  0  0  0
   45.7500   16.8200   -4.0620 C   0  0  0  0  0  0  0  0  0  0  0  0
   47.1400   16.9810   -3.9730 C   0  0  0  0  0  3  0  0  0  0  0  0
   44.6540   18.1970   -3.7080 S   0  0  0  0  0  0  0  0  0  0  0  0
   45.0640   19.3620   -4.6240 O   0  0  0  0  0  0  0  0  0  0  0  0
   42.8420   18.1190   -3.6950 C   0  0  0  0  0  1  0  0  0  0  0  0
   45.1000   18.8000   -2.3670 O   0  0  0  0  0  0  0  0  0  0  0  0
   55.4590   16.3350   -1.7710 C   0  0  1  0  0  3  0  0  0  0  0  0
   55.3660   14.8010   -1.8870 C   0  0  0  0  0  1  0  0  0  0  0  0
   56.8040   16.7540   -2.3450 C   0  0  0  0  0  0  0  0  0  0  0  0
   57.8330   17.4010   -1.6380 C   0  0  0  0  0  0  0  0  0  0  0  0
   57.8680   17.7930   -0.1920 C   0  0  0  0  0  1  0  0  0  0  0  0
   59.1230   17.6750   -2.6840 S   0  0  0  0  0  0  0  0  0  0  0  0
   58.4030   16.9840   -4.0330 C   0  0  0  0  0  0  0  0  0  0  0  0
   59.0240   16.8810   -5.3860 C   0  0  0  0  0  1  0  0  0  0  0  0
   57.1400   16.5260   -3.6910 C   0  0  0  0  0  3  0  0  0  0  0  0
  1  2  1  0  0  0  0
  1 29  1  0  0  0  0
  2  4  2  0  0  0  0
  3  2  2  0  0  0  0
  5  6  2  0  0  0  0
  5  2  1  0  0  0  0
  7  6  1  0  0  0  0
  8  7  1  0  0  0  0
  9 10  2  0  0  0  0
  9  7  1  0  0  0  0
 10  5  1  0  0  0  0
 11  1  1  0  0  0  0
 12 11  1  0  0  0  0
 12 18  1  0  0  0  0
 13 12  2  0  0  0  0
 14 13  1  0  0  0  0
 15 13  1  0  0  0  0
 15 16  2  0  0  0  0
 16 17  1  0  0  0  0
 17 18  2  0  0  0  0
 19 16  1  0  0  0  0
 19 24  1  0  0  0  0
 20 19  2  0  0  0  0
 21 20  1  0  0  0  0
 21 22  2  0  0  0  0
 22 23  1  0  0  0  0
 23 24  2  0  0  0  0
 23 25  1  0  0  0  0
 25 27  1  0  0  0  0
 25 28  2  0  0  0  0
 26 25  2  0  0  0  0
 29 30  1  6  0  0  0
 31 29  1  0  0  0  0
 31 32  2  0  0  0  0
 32 33  1  0  0  0  0
 34 32  1  0  0  0  0
 35 37  2  0  0  0  0
 35 34  1  0  0  0  0
 36 35  1  0  0  0  0
 37 31  1  0  0  0  0
M  END
>  <POSE>
4

>  <SCORE>
-7.301

>  <RMSD_LB_BP>
7.538

>  <RMSD_UB_BP>
15.037

$$$$
/content/4EXS_VS/DOCKING/CLC-0000193/CLC-0000193_output.pdbqt
 OpenBabel03062504413D

 37 40  0  0  1  0  0  0  0  0999 V2000
   55.0130   18.4280   -3.1360 N   0  0  0  0  0  0  0  0  0  0  0  0
   55.6410   19.7940   -4.1150 S   0  0  0  0  0  0  0  0  0  0  0  0
   54.5410   20.8660   -4.0720 O   0  0  0  0  0  0  0  0  0  0  0  0
   56.7650   20.4530   -3.3010 O   0  0  0  0  0  0  0  0  0  0  0  0
   56.0630   19.5450   -5.8320 C   0  0  0  0  0  0  0  0  0  0  0  0
   57.3210   19.2980   -6.3300 C   0  0  0  0  0  3  0  0  0  0  0  0
   57.2140   19.2140   -7.6670 N   0  0  0  0  0  0  0  0  0  0  0  0
   58.2830   18.9600   -8.6230 C   0  0  0  0  0  1  0  0  0  0  0  0
   55.9120   19.4150   -7.9550 C   0  0  0  0  0  3  0  0  0  0  0  0
   55.1760   19.6270   -6.8450 N   0  0  0  0  0  0  0  0  0  0  0  0
   54.6460   17.2600   -3.9890 C   0  0  0  0  0  2  0  0  0  0  0  0
   53.1450   16.9500   -4.0970 C   0  0  0  0  0  0  0  0  0  0  0  0
   52.4720   16.6540   -5.3210 C   0  0  0  0  0  0  0  0  0  0  0  0
   53.1190   16.6170   -6.6880 C   0  0  0  0  0  1  0  0  0  0  0  0
   51.0860   16.3930   -5.3100 C   0  0  0  0  0  3  0  0  0  0  0  0
   50.3170   16.4330   -4.1270 C   0  0  0  0  0  0  0  0  0  0  0  0
   50.9960   16.7650   -2.9410 C   0  0  0  0  0  3  0  0  0  0  0  0
   52.3650   17.0190   -2.9340 C   0  0  0  0  0  3  0  0  0  0  0  0
   48.8250   16.1520   -4.1340 C   0  0  0  0  0  0  0  0  0  0  0  0
   48.3220   14.8440   -4.3540 C   0  0  0  0  0  3  0  0  0  0  0  0
   46.9480   14.5880   -4.3610 C   0  0  0  0  0  3  0  0  0  0  0  0
   46.0380   15.6190   -4.1520 C   0  0  0  0  0  3  0  0  0  0  0  0
   46.4970   16.9170   -3.9330 C   0  0  0  0  0  0  0  0  0  0  0  0
   47.8740   17.1810   -3.9240 C   0  0  0  0  0  3  0  0  0  0  0  0
   45.3180   18.2470   -3.6790 S   0  0  0  0  0  0  0  0  0  0  0  0
   45.6980   19.3910   -4.6340 O   0  0  0  0  0  0  0  0  0  0  0  0
   43.5130   18.0710   -3.7220 C   0  0  0  0  0  1  0  0  0  0  0  0
   45.6840   18.9330   -2.3540 O   0  0  0  0  0  0  0  0  0  0  0  0
   55.7610   18.1470   -1.8720 C   0  0  1  0  0  3  0  0  0  0  0  0
   54.8980   18.2780   -0.6030 C   0  0  0  0  0  1  0  0  0  0  0  0
   56.3460   16.7430   -1.8810 C   0  0  0  0  0  0  0  0  0  0  0  0
   57.5740   16.3680   -2.4560 C   0  0  0  0  0  0  0  0  0  0  0  0
   58.5840   17.2340   -3.1460 C   0  0  0  0  0  1  0  0  0  0  0  0
   57.7970   14.7150   -2.2320 S   0  0  0  0  0  0  0  0  0  0  0  0
   56.3570   14.4540   -1.4110 C   0  0  0  0  0  0  0  0  0  0  0  0
   55.8860   13.1370   -0.8900 C   0  0  0  0  0  1  0  0  0  0  0  0
   55.6730   15.6550   -1.2970 C   0  0  0  0  0  3  0  0  0  0  0  0
  1 29  1  0  0  0  0
  2  3  2  0  0  0  0
  2  4  2  0  0  0  0
  2  1  1  0  0  0  0
  5  2  1  0  0  0  0
  6  5  2  0  0  0  0
  7  6  1  0  0  0  0
  8  7  1  0  0  0  0
  9  7  1  0  0  0  0
  9 10  2  0  0  0  0
 10  5  1  0  0  0  0
 11  1  1  0  0  0  0
 12 11  1  0  0  0  0
 12 18  1  0  0  0  0
 13 15  1  0  0  0  0
 13 12  2  0  0  0  0
 14 13  1  0  0  0  0
 15 16  2  0  0  0  0
 16 17  1  0  0  0  0
 17 18  2  0  0  0  0
 19 16  1  0  0  0  0
 19 24  1  0  0  0  0
 20 19  2  0  0  0  0
 21 20  1  0  0  0  0
 21 22  2  0  0  0  0
 22 23  1  0  0  0  0
 23 24  2  0  0  0  0
 23 25  1  0  0  0  0
 25 28  2  0  0  0  0
 26 25  2  0  0  0  0
 27 25  1  0  0  0  0
 29 30  1  1  0  0  0
 31 29  1  0  0  0  0
 31 37  1  0  0  0  0
 32 34  1  0  0  0  0
 32 31  2  0  0  0  0
 33 32  1  0  0  0  0
 34 35  1  0  0  0  0
 35 37  2  0  0  0  0
 35 36  1  0  0  0  0
M  END
>  <POSE>
5

>  <SCORE>
-7.137

>  <RMSD_LB_BP>
7.765

>  <RMSD_UB_BP>
15.287

$$$$
/content/4EXS_VS/DOCKING/CLC-0000193/CLC-0000193_output.pdbqt
 OpenBabel03062504413D

 37 40  0  0  1  0  0  0  0  0999 V2000
   54.3850   17.9630   -3.3240 N   0  0  0  0  0  0  0  0  0  0  0  0
   55.1930   17.5680   -4.8760 S   0  0  0  0  0  0  0  0  0  0  0  0
   54.0690   17.1040   -5.8150 O   0  0  0  0  0  0  0  0  0  0  0  0
   55.6180   18.8990   -5.5160 O   0  0  0  0  0  0  0  0  0  0  0  0
   56.4680   16.3190   -4.9290 C   0  0  0  0  0  0  0  0  0  0  0  0
   57.4090   16.1620   -5.9200 C   0  0  0  0  0  3  0  0  0  0  0  0
   58.1500   15.0870   -5.6010 N   0  0  0  0  0  0  0  0  0  0  0  0
   59.2700   14.5350   -6.3520 C   0  0  0  0  0  1  0  0  0  0  0  0
   57.6510   14.6130   -4.4420 C   0  0  0  0  0  3  0  0  0  0  0  0
   56.6090   15.3480   -4.0030 N   0  0  0  0  0  0  0  0  0  0  0  0
   53.8210   16.7470   -2.6690 C   0  0  0  0  0  2  0  0  0  0  0  0
   52.3320   16.4710   -2.9280 C   0  0  0  0  0  0  0  0  0  0  0  0
   51.6790   15.2370   -2.6290 C   0  0  0  0  0  0  0  0  0  0  0  0
   52.3480   14.0170   -2.0340 C   0  0  0  0  0  1  0  0  0  0  0  0
   50.3070   15.0850   -2.9170 C   0  0  0  0  0  3  0  0  0  0  0  0
   49.5420   16.1070   -3.5170 C   0  0  0  0  0  0  0  0  0  0  0  0
   50.2160   17.2990   -3.8380 C   0  0  0  0  0  3  0  0  0  0  0  0
   51.5690   17.4680   -3.5540 C   0  0  0  0  0  3  0  0  0  0  0  0
   48.0660   15.9250   -3.8220 C   0  0  0  0  0  0  0  0  0  0  0  0
   47.5580   14.6920   -4.3060 C   0  0  0  0  0  3  0  0  0  0  0  0
   46.2000   14.5280   -4.5880 C   0  0  0  0  0  3  0  0  0  0  0  0
   45.3090   15.5800   -4.4000 C   0  0  0  0  0  3  0  0  0  0  0  0
   45.7720   16.8060   -3.9260 C   0  0  0  0  0  0  0  0  0  0  0  0
   47.1340   16.9780   -3.6410 C   0  0  0  0  0  3  0  0  0  0  0  0
   44.6210   18.1660   -3.7000 S   0  0  0  0  0  0  0  0  0  0  0  0
   45.0390   19.2910   -4.6600 O   0  0  0  0  0  0  0  0  0  0  0  0
   42.8130   18.0310   -3.7640 C   0  0  0  0  0  1  0  0  0  0  0  0
   44.9860   18.8550   -2.3760 O   0  0  0  0  0  0  0  0  0  0  0  0
   55.1100   18.9380   -2.4530 C   0  0  1  0  0  3  0  0  0  0  0  0
   54.3240   19.3400   -1.1900 C   0  0  0  0  0  1  0  0  0  0  0  0
   56.4480   18.3770   -1.9970 C   0  0  0  0  0  0  0  0  0  0  0  0
   57.7120   18.7900   -2.4550 C   0  0  0  0  0  0  0  0  0  0  0  0
   58.0390   19.8670   -3.4440 C   0  0  0  0  0  1  0  0  0  0  0  0
   58.8960   17.8810   -1.6790 S   0  0  0  0  0  0  0  0  0  0  0  0
   57.8350   16.9610   -0.7590 C   0  0  0  0  0  0  0  0  0  0  0  0
   58.2310   15.8950    0.2070 C   0  0  0  0  0  1  0  0  0  0  0  0
   56.5340   17.3470   -1.0430 C   0  0  0  0  0  3  0  0  0  0  0  0
  1 11  1  0  0  0  0
  1 29  1  0  0  0  0
  2  1  1  0  0  0  0
  3  2  2  0  0  0  0
  4  2  2  0  0  0  0
  5  2  1  0  0  0  0
  5 10  1  0  0  0  0
  6  7  1  0  0  0  0
  6  5  2  0  0  0  0
  7  9  1  0  0  0  0
  8  7  1  0  0  0  0
  9 10  2  0  0  0  0
 12 11  1  0  0  0  0
 12 13  1  0  0  0  0
 13 14  1  0  0  0  0
 15 13  2  0  0  0  0
 16 15  1  0  0  0  0
 17 18  1  0  0  0  0
 17 16  2  0  0  0  0
 18 12  2  0  0  0  0
 19 24  1  0  0  0  0
 19 16  1  0  0  0  0
 20 19  2  0  0  0  0
 21 22  2  0  0  0  0
 21 20  1  0  0  0  0
 22 23  1  0  0  0  0
 23 25  1  0  0  0  0
 23 24  2  0  0  0  0
 25 28  2  0  0  0  0
 26 25  2  0  0  0  0
 27 25  1  0  0  0  0
 29 31  1  0  0  0  0
 29 30  1  1  0  0  0
 31 37  1  0  0  0  0
 32 31  2  0  0  0  0
 32 34  1  0  0  0  0
 33 32  1  0  0  0  0
 34 35  1  0  0  0  0
 35 36  1  0  0  0  0
 37 35  2  0  0  0  0
M  END
>  <POSE>
6

>  <SCORE>
-6.711

>  <RMSD_LB_BP>
7.510

>  <RMSD_UB_BP>
15.170

$$$$
/content/4EXS_VS/DOCKING/CLC-0000193/CLC-0000193_output.pdbqt
 OpenBabel03062504413D

 37 40  0  0  1  0  0  0  0  0999 V2000
   55.2690   16.9250   -3.2940 N   0  0  0  0  0  0  0  0  0  0  0  0
   55.9520   15.9220   -1.9730 S   0  0  0  0  0  0  0  0  0  0  0  0
   57.4570   15.8280   -2.2680 O   0  0  0  0  0  0  0  0  0  0  0  0
   55.9270   16.7780   -0.6970 O   0  0  0  0  0  0  0  0  0  0  0  0
   55.3630   14.2550   -1.7190 C   0  0  0  0  0  0  0  0  0  0  0  0
   54.0800   13.8080   -1.9270 C   0  0  0  0  0  3  0  0  0  0  0  0
   54.0460   12.5110   -1.5800 N   0  0  0  0  0  0  0  0  0  0  0  0
   52.8990   11.6130   -1.6340 C   0  0  0  0  0  1  0  0  0  0  0  0
   55.2900   12.1970   -1.1670 C   0  0  0  0  0  3  0  0  0  0  0  0
   56.1260   13.2530   -1.2350 N   0  0  0  0  0  0  0  0  0  0  0  0
   54.3010   17.9360   -2.7760 C   0  0  0  0  0  2  0  0  0  0  0  0
   52.8150   17.6230   -3.0010 C   0  0  0  0  0  0  0  0  0  0  0  0
   51.7410   18.4240   -2.5050 C   0  0  0  0  0  0  0  0  0  0  0  0
   51.8980   19.6790   -1.6770 C   0  0  0  0  0  1  0  0  0  0  0  0
   50.4080   18.0400   -2.7610 C   0  0  0  0  0  3  0  0  0  0  0  0
   50.0810   16.8690   -3.4770 C   0  0  0  0  0  0  0  0  0  0  0  0
   51.1560   16.0780   -3.9220 C   0  0  0  0  0  3  0  0  0  0  0  0
   52.4770   16.4450   -3.6840 C   0  0  0  0  0  3  0  0  0  0  0  0
   48.6410   16.4700   -3.7410 C   0  0  0  0  0  0  0  0  0  0  0  0
   48.3030   15.1560   -4.1560 C   0  0  0  0  0  3  0  0  0  0  0  0
   46.9770   14.7910   -4.4000 C   0  0  0  0  0  3  0  0  0  0  0  0
   45.9510   15.7170   -4.2410 C   0  0  0  0  0  3  0  0  0  0  0  0
   46.2450   17.0170   -3.8350 C   0  0  0  0  0  0  0  0  0  0  0  0
   47.5740   17.3910   -3.5880 C   0  0  0  0  0  3  0  0  0  0  0  0
   44.9190   18.2130   -3.6460 S   0  0  0  0  0  0  0  0  0  0  0  0
   45.1770   19.3530   -4.6450 O   0  0  0  0  0  0  0  0  0  0  0  0
   43.1460   17.8300   -3.6950 C   0  0  0  0  0  1  0  0  0  0  0  0
   45.1880   18.9890   -2.3470 O   0  0  0  0  0  0  0  0  0  0  0  0
   56.2490   17.3790   -4.3290 C   0  0  1  0  0  3  0  0  0  0  0  0
   55.8500   16.9940   -5.7670 C   0  0  0  0  0  1  0  0  0  0  0  0
   56.4240   18.8900   -4.2930 C   0  0  0  0  0  0  0  0  0  0  0  0
   57.2900   19.5970   -3.4390 C   0  0  0  0  0  0  0  0  0  0  0  0
   58.2390   19.0530   -2.4160 C   0  0  0  0  0  1  0  0  0  0  0  0
   57.1360   21.2430   -3.7520 S   0  0  0  0  0  0  0  0  0  0  0  0
   55.9840   21.0850   -4.9610 C   0  0  0  0  0  0  0  0  0  0  0  0
   55.3650   22.2130   -5.7180 C   0  0  0  0  0  1  0  0  0  0  0  0
   55.6960   19.7410   -5.1440 C   0  0  0  0  0  3  0  0  0  0  0  0
  1 11  1  0  0  0  0
  1  2  1  0  0  0  0
  2  5  1  0  0  0  0
  2  4  2  0  0  0  0
  3  2  2  0  0  0  0
  5 10  1  0  0  0  0
  6  5  2  0  0  0  0
  6  7  1  0  0  0  0
  7  9  1  0  0  0  0
  8  7  1  0  0  0  0
 10  9  2  0  0  0  0
 12 11  1  0  0  0  0
 12 13  1  0  0  0  0
 13 14  1  0  0  0  0
 15 13  2  0  0  0  0
 16 15  1  0  0  0  0
 17 18  1  0  0  0  0
 17 16  2  0  0  0  0
 18 12  2  0  0  0  0
 19 24  1  0  0  0  0
 19 16  1  0  0  0  0
 20 19  2  0  0  0  0
 21 22  2  0  0  0  0
 21 20  1  0  0  0  0
 22 23  1  0  0  0  0
 23 25  1  0  0  0  0
 23 24  2  0  0  0  0
 25 28  2  0  0  0  0
 26 25  2  0  0  0  0
 27 25  1  0  0  0  0
 29 30  1  6  0  0  0
 29 31  1  0  0  0  0
 29  1  1  0  0  0  0
 31 32  2  0  0  0  0
 32 33  1  0  0  0  0
 34 32  1  0  0  0  0
 35 34  1  0  0  0  0
 36 35  1  0  0  0  0
 37 35  2  0  0  0  0
 37 31  1  0  0  0  0
M  END
>  <POSE>
7

>  <SCORE>
-6.611

>  <RMSD_LB_BP>
7.337

>  <RMSD_UB_BP>
14.341

$$$$
/content/4EXS_VS/DOCKING/CLC-0000193/CLC-0000193_output.pdbqt
 OpenBabel03062504413D

 37 40  0  0  1  0  0  0  0  0999 V2000
   55.5900   16.7900   -3.5190 N   0  0  0  0  0  0  0  0  0  0  0  0
   56.2910   16.6720   -1.8710 S   0  0  0  0  0  0  0  0  0  0  0  0
   55.7420   17.8850   -1.1060 O   0  0  0  0  0  0  0  0  0  0  0  0
   55.5900   15.5010   -1.1650 O   0  0  0  0  0  0  0  0  0  0  0  0
   58.0640   16.6720   -1.6510 C   0  0  0  0  0  0  0  0  0  0  0  0
   58.8520   17.7750   -1.4200 C   0  0  0  0  0  3  0  0  0  0  0  0
   60.1250   17.3510   -1.3550 N   0  0  0  0  0  0  0  0  0  0  0  0
   61.3140   18.1610   -1.1230 C   0  0  0  0  0  1  0  0  0  0  0  0
   60.0910   16.0170   -1.5520 C   0  0  0  0  0  3  0  0  0  0  0  0
   58.8340   15.5680   -1.7420 N   0  0  0  0  0  0  0  0  0  0  0  0
   54.6590   17.9490   -3.6410 C   0  0  0  0  0  2  0  0  0  0  0  0
   53.1610   17.6120   -3.6520 C   0  0  0  0  0  0  0  0  0  0  0  0
   52.1900   18.2350   -2.8100 C   0  0  0  0  0  0  0  0  0  0  0  0
   52.4850   19.2980   -1.7750 C   0  0  0  0  0  1  0  0  0  0  0  0
   50.8380   17.8430   -2.8950 C   0  0  0  0  0  3  0  0  0  0  0  0
   50.3970   16.8310   -3.7730 C   0  0  0  0  0  0  0  0  0  0  0  0
   51.3770   16.2060   -4.5640 C   0  0  0  0  0  3  0  0  0  0  0  0
   52.7150   16.5850   -4.4980 C   0  0  0  0  0  3  0  0  0  0  0  0
   48.9370   16.4190   -3.8490 C   0  0  0  0  0  0  0  0  0  0  0  0
   48.5610   15.0730   -4.0920 C   0  0  0  0  0  3  0  0  0  0  0  0
   47.2180   14.6970   -4.1630 C   0  0  0  0  0  3  0  0  0  0  0  0
   46.2120   15.6440   -3.9980 C   0  0  0  0  0  3  0  0  0  0  0  0
   46.5430   16.9760   -3.7590 C   0  0  0  0  0  0  0  0  0  0  0  0
   47.8900   17.3610   -3.6860 C   0  0  0  0  0  3  0  0  0  0  0  0
   45.2420   18.1970   -3.5620 S   0  0  0  0  0  0  0  0  0  0  0  0
   45.5140   19.3310   -4.5640 O   0  0  0  0  0  0  0  0  0  0  0  0
   43.4620   17.8470   -3.5980 C   0  0  0  0  0  1  0  0  0  0  0  0
   45.5340   18.9690   -2.2660 O   0  0  0  0  0  0  0  0  0  0  0  0
   56.5490   16.5570   -4.6430 C   0  0  1  0  0  3  0  0  0  0  0  0
   56.5250   15.1150   -5.1840 C   0  0  0  0  0  1  0  0  0  0  0  0
   56.2610   17.4870   -5.8110 C   0  0  0  0  0  0  0  0  0  0  0  0
   56.7660   18.7910   -5.9680 C   0  0  0  0  0  0  0  0  0  0  0  0
   57.7020   19.5420   -5.0720 C   0  0  0  0  0  1  0  0  0  0  0  0
   56.1680   19.4360   -7.4030 S   0  0  0  0  0  0  0  0  0  0  0  0
   55.2710   18.0870   -7.8410 C   0  0  0  0  0  0  0  0  0  0  0  0
   54.4420   17.9660   -9.0760 C   0  0  0  0  0  1  0  0  0  0  0  0
   55.4210   17.1060   -6.8730 C   0  0  0  0  0  3  0  0  0  0  0  0
  1  2  1  0  0  0  0
  2  5  1  0  0  0  0
  2  4  2  0  0  0  0
  2  3  2  0  0  0  0
  5  6  2  0  0  0  0
  6  7  1  0  0  0  0
  7  8  1  0  0  0  0
  9  7  1  0  0  0  0
 10  5  1  0  0  0  0
 10  9  2  0  0  0  0
 11  1  1  0  0  0  0
 12 11  1  0  0  0  0
 12 13  1  0  0  0  0
 13 14  1  0  0  0  0
 15 13  2  0  0  0  0
 16 15  1  0  0  0  0
 17 18  1  0  0  0  0
 17 16  2  0  0  0  0
 18 12  2  0  0  0  0
 19 16  1  0  0  0  0
 19 24  1  0  0  0  0
 20 19  2  0  0  0  0
 21 20  1  0  0  0  0
 21 22  2  0  0  0  0
 22 23  1  0  0  0  0
 23 24  2  0  0  0  0
 23 25  1  0  0  0  0
 25 28  2  0  0  0  0
 26 25  2  0  0  0  0
 27 25  1  0  0  0  0
 29 30  1  6  0  0  0
 29  1  1  0  0  0  0
 31 29  1  0  0  0  0
 32 31  2  0  0  0  0
 32 33  1  0  0  0  0
 34 32  1  0  0  0  0
 35 34  1  0  0  0  0
 35 37  2  0  0  0  0
 36 35  1  0  0  0  0
 37 31  1  0  0  0  0
M  END
>  <POSE>
8

>  <SCORE>
-6.384

>  <RMSD_LB_BP>
8.233

>  <RMSD_UB_BP>
15.495

$$$$
/content/4EXS_VS/DOCKING/CLC-0000193/CLC-0000193_output.pdbqt
 OpenBabel03062504413D

 37 40  0  0  1  0  0  0  0  0999 V2000
   56.3800   17.9650   -4.4160 N   0  0  0  0  0  0  0  0  0  0  0  0
   55.8530   19.6490   -4.7430 S   0  0  0  0  0  0  0  0  0  0  0  0
   57.1450   20.4380   -5.0020 O   0  0  0  0  0  0  0  0  0  0  0  0
   55.1900   19.6530   -6.1290 O   0  0  0  0  0  0  0  0  0  0  0  0
   54.9250   20.5510   -3.5120 C   0  0  0  0  0  0  0  0  0  0  0  0
   54.3740   20.0260   -2.3670 C   0  0  0  0  0  3  0  0  0  0  0  0
   53.7280   21.0240   -1.7400 N   0  0  0  0  0  0  0  0  0  0  0  0
   52.9950   20.9470   -0.4830 C   0  0  0  0  0  1  0  0  0  0  0  0
   53.8910   22.1210   -2.5070 C   0  0  0  0  0  3  0  0  0  0  0  0
   54.6200   21.8610   -3.6110 N   0  0  0  0  0  0  0  0  0  0  0  0
   55.5700   16.9740   -5.1830 C   0  0  0  0  0  2  0  0  0  0  0  0
   54.1520   16.7100   -4.6540 C   0  0  0  0  0  0  0  0  0  0  0  0
   53.8450   16.4080   -3.2930 C   0  0  0  0  0  0  0  0  0  0  0  0
   54.8570   16.2860   -2.1760 C   0  0  0  0  0  1  0  0  0  0  0  0
   52.5070   16.1720   -2.9150 C   0  0  0  0  0  3  0  0  0  0  0  0
   51.4420   16.1990   -3.8400 C   0  0  0  0  0  0  0  0  0  0  0  0
   51.7750   16.4600   -5.1810 C   0  0  0  0  0  3  0  0  0  0  0  0
   53.0890   16.7020   -5.5700 C   0  0  0  0  0  3  0  0  0  0  0  0
   50.0080   15.9390   -3.4160 C   0  0  0  0  0  0  0  0  0  0  0  0
   49.6200   14.7010   -2.8430 C   0  0  0  0  0  3  0  0  0  0  0  0
   48.2990   14.4640   -2.4550 C   0  0  0  0  0  3  0  0  0  0  0  0
   47.3280   15.4460   -2.6250 C   0  0  0  0  0  3  0  0  0  0  0  0
   47.6720   16.6750   -3.1840 C   0  0  0  0  0  0  0  0  0  0  0  0
   48.9960   16.9200   -3.5760 C   0  0  0  0  0  3  0  0  0  0  0  0
   46.4130   17.9330   -3.4150 S   0  0  0  0  0  0  0  0  0  0  0  0
   46.9020   18.8800   -4.5230 O   0  0  0  0  0  0  0  0  0  0  0  0
   44.6510   17.6120   -3.7040 C   0  0  0  0  0  1  0  0  0  0  0  0
   46.5170   18.9050   -2.2300 O   0  0  0  0  0  0  0  0  0  0  0  0
   57.8590   17.7530   -4.3690 C   0  0  1  0  0  3  0  0  0  0  0  0
   58.4800   18.0500   -2.9900 C   0  0  0  0  0  1  0  0  0  0  0  0
   58.2210   16.3210   -4.7330 C   0  0  0  0  0  0  0  0  0  0  0  0
   58.7590   15.8970   -5.9610 C   0  0  0  0  0  0  0  0  0  0  0  0
   59.1250   16.7250   -7.1550 C   0  0  0  0  0  1  0  0  0  0  0  0
   58.9830   14.2300   -5.9090 S   0  0  0  0  0  0  0  0  0  0  0  0
   58.4090   14.0250   -4.3460 C   0  0  0  0  0  0  0  0  0  0  0  0
   58.3190   12.7230   -3.6220 C   0  0  0  0  0  1  0  0  0  0  0  0
   58.0300   15.2570   -3.8340 C   0  0  0  0  0  3  0  0  0  0  0  0
  1 29  1  0  0  0  0
  2  1  1  0  0  0  0
  2  5  1  0  0  0  0
  3  2  2  0  0  0  0
  4  2  2  0  0  0  0
  5  6  2  0  0  0  0
  6  7  1  0  0  0  0
  7  8  1  0  0  0  0
  9  7  1  0  0  0  0
 10  5  1  0  0  0  0
 10  9  2  0  0  0  0
 11 12  1  0  0  0  0
 11  1  1  0  0  0  0
 12 13  1  0  0  0  0
 13 15  2  0  0  0  0
 13 14  1  0  0  0  0
 16 19  1  0  0  0  0
 16 15  1  0  0  0  0
 17 16  2  0  0  0  0
 18 17  1  0  0  0  0
 18 12  2  0  0  0  0
 19 20  1  0  0  0  0
 20 21  2  0  0  0  0
 22 21  1  0  0  0  0
 23 22  2  0  0  0  0
 24 19  2  0  0  0  0
 24 23  1  0  0  0  0
 25 23  1  0  0  0  0
 25 28  2  0  0  0  0
 26 25  2  0  0  0  0
 27 25  1  0  0  0  0
 29 30  1  1  0  0  0
 31 29  1  0  0  0  0
 31 37  1  0  0  0  0
 32 34  1  0  0  0  0
 32 31  2  0  0  0  0
 33 32  1  0  0  0  0
 34 35  1  0  0  0  0
 35 37  2  0  0  0  0
 35 36  1  0  0  0  0
M  END
>  <POSE>
9

>  <SCORE>
-6.301

>  <RMSD_LB_BP>
8.052

>  <RMSD_UB_BP>
15.476

$$$$
