/content/1PQ6_Docking/DOCKING/CLC-0000181/CLC-0000181_output.pdbqt
 OpenBabel03072503353D

 38 41  0  0  1  0  0  0  0  0999 V2000
   17.2490   -3.8090   59.1640 C   0  0  0  0  0  2  0  0  0  0  0  0
   17.9280   -4.1300   60.4440 N   0  0  0  0  0  0  0  0  0  0  0  0
   18.0040   -5.9200   60.6590 S   0  0  0  0  0  0  0  0  0  0  0  0
   16.6280   -6.4110   61.1270 O   0  0  0  0  0  0  0  0  0  0  0  0
   18.8600   -6.1690   61.9120 O   0  0  0  0  0  0  0  0  0  0  0  0
   18.5740   -6.8610   59.2500 C   0  0  0  0  0  0  0  0  0  0  0  0
   19.8700   -6.9400   58.7930 C   0  0  0  0  0  3  0  0  0  0  0  0
   19.8620   -7.7130   57.6960 N   0  0  0  0  0  0  0  0  0  0  0  0
   21.0020   -8.0690   56.8610 C   0  0  0  0  0  1  0  0  0  0  0  0
   18.5830   -8.0920   57.5080 C   0  0  0  0  0  3  0  0  0  0  0  0
   17.7620   -7.5800   58.4500 N   0  0  0  0  0  0  0  0  0  0  0  0
   19.2650   -3.4850   60.6010 C   0  0  1  0  0  3  0  0  0  0  0  0
   19.4710   -2.2690   59.6730 C   0  0  0  0  0  1  0  0  0  0  0  0
   19.4320   -2.9820   62.0260 C   0  0  0  0  0  0  0  0  0  0  0  0
   18.4620   -2.2960   62.7790 C   0  0  0  0  0  0  0  0  0  0  0  0
   17.0690   -1.9060   62.3860 C   0  0  0  0  0  1  0  0  0  0  0  0
   19.1030   -1.9440   64.2940 S   0  0  0  0  0  0  0  0  0  0  0  0
   20.6000   -2.6510   64.0250 C   0  0  0  0  0  0  0  0  0  0  0  0
   21.7210   -2.7020   65.0070 C   0  0  0  0  0  1  0  0  0  0  0  0
   20.6290   -3.1790   62.7430 C   0  0  0  0  0  3  0  0  0  0  0  0
   15.7970   -3.4170   59.3840 C   0  0  0  0  0  0  0  0  0  0  0  0
   15.3100   -2.0820   59.3890 C   0  0  0  0  0  0  0  0  0  0  0  0
   16.1680   -0.8510   59.1920 C   0  0  0  0  0  1  0  0  0  0  0  0
   13.9350   -1.8510   59.5780 C   0  0  0  0  0  3  0  0  0  0  0  0
   13.0110   -2.9030   59.7710 C   0  0  0  0  0  0  0  0  0  0  0  0
   13.5270   -4.2170   59.7770 C   0  0  0  0  0  3  0  0  0  0  0  0
   14.8850   -4.4620   59.5890 C   0  0  0  0  0  3  0  0  0  0  0  0
   11.5290   -2.6350   59.9540 C   0  0  0  0  0  0  0  0  0  0  0  0
   10.6540   -3.6270   60.4630 C   0  0  0  0  0  3  0  0  0  0  0  0
    9.2890   -3.3760   60.6280 C   0  0  0  0  0  3  0  0  0  0  0  0
    8.7550   -2.1370   60.2890 C   0  0  0  0  0  3  0  0  0  0  0  0
    9.5850   -1.1390   59.7790 C   0  0  0  0  0  0  0  0  0  0  0  0
   10.9550   -1.3820   59.6160 C   0  0  0  0  0  3  0  0  0  0  0  0
    8.9070    0.4640   59.3330 S   0  0  0  0  0  0  0  0  0  0  0  0
    9.4760    1.4970   60.3200 O   0  0  0  0  0  0  0  0  0  0  0  0
    7.4460    0.4760   59.8070 O   0  0  0  0  0  0  0  0  0  0  0  0
    8.9640    1.1840   57.6600 C   0  0  0  0  0  2  0  0  0  0  0  0
    7.8550    2.2100   57.4650 C   0  0  0  0  0  1  0  0  0  0  0  0
  1 21  1  0  0  0  0
  1  2  1  0  0  0  0
  2 12  1  0  0  0  0
  2  3  1  0  0  0  0
  3  4  2  0  0  0  0
  3  5  2  0  0  0  0
  6  3  1  0  0  0  0
  7  6  2  0  0  0  0
  8  7  1  0  0  0  0
  9  8  1  0  0  0  0
 10  8  1  0  0  0  0
 10 11  2  0  0  0  0
 11  6  1  0  0  0  0
 12 13  1  6  0  0  0
 12 14  1  0  0  0  0
 14 20  1  0  0  0  0
 14 15  2  0  0  0  0
 15 17  1  0  0  0  0
 16 15  1  0  0  0  0
 18 17  1  0  0  0  0
 18 19  1  0  0  0  0
 20 18  2  0  0  0  0
 21 22  2  0  0  0  0
 21 27  1  0  0  0  0
 22 24  1  0  0  0  0
 23 22  1  0  0  0  0
 24 25  2  0  0  0  0
 25 26  1  0  0  0  0
 25 28  1  0  0  0  0
 27 26  2  0  0  0  0
 28 29  1  0  0  0  0
 29 30  2  0  0  0  0
 31 30  1  0  0  0  0
 32 31  2  0  0  0  0
 33 32  1  0  0  0  0
 33 28  2  0  0  0  0
 34 32  1  0  0  0  0
 34 36  2  0  0  0  0
 34 35  2  0  0  0  0
 37 34  1  0  0  0  0
 38 37  1  0  0  0  0
M  END
>  <POSE>
1

>  <SCORE>
-12.902

>  <RMSD_LB_BP>
0.000

>  <RMSD_UB_BP>
0.000

$$$$
/content/1PQ6_Docking/DOCKING/CLC-0000181/CLC-0000181_output.pdbqt
 OpenBabel03072503353D

 38 41  0  0  1  0  0  0  0  0999 V2000
   16.9880   -4.3290   61.0400 C   0  0  0  0  0  2  0  0  0  0  0  0
   17.8920   -3.6550   60.0740 N   0  0  0  0  0  0  0  0  0  0  0  0
   18.4000   -2.0530   60.7350 S   0  0  0  0  0  0  0  0  0  0  0  0
   17.2270   -1.0760   60.5910 O   0  0  0  0  0  0  0  0  0  0  0  0
   19.4080   -1.4720   59.7290 O   0  0  0  0  0  0  0  0  0  0  0  0
   19.0330   -2.0540   62.4070 C   0  0  0  0  0  0  0  0  0  0  0  0
   20.2500   -2.5510   62.8170 C   0  0  0  0  0  3  0  0  0  0  0  0
   20.3180   -2.3930   64.1490 N   0  0  0  0  0  0  0  0  0  0  0  0
   21.4130   -2.7840   65.0270 C   0  0  0  0  0  1  0  0  0  0  0  0
   19.1640   -1.8060   64.5210 C   0  0  0  0  0  3  0  0  0  0  0  0
   18.3480   -1.5860   63.4680 N   0  0  0  0  0  0  0  0  0  0  0  0
   19.0570   -4.4860   59.6510 C   0  0  1  0  0  3  0  0  0  0  0  0
   19.4780   -5.5320   60.7060 C   0  0  0  0  0  1  0  0  0  0  0  0
   18.7110   -5.2550   58.3860 C   0  0  0  0  0  0  0  0  0  0  0  0
   18.4560   -4.6930   57.1210 C   0  0  0  0  0  0  0  0  0  0  0  0
   18.4660   -3.2510   56.7130 C   0  0  0  0  0  1  0  0  0  0  0  0
   18.1170   -5.9340   56.0370 S   0  0  0  0  0  0  0  0  0  0  0  0
   18.2900   -7.1880   57.1380 C   0  0  0  0  0  0  0  0  0  0  0  0
   18.1180   -8.6370   56.8320 C   0  0  0  0  0  1  0  0  0  0  0  0
   18.6180   -6.6610   58.3780 C   0  0  0  0  0  3  0  0  0  0  0  0
   15.5290   -4.0140   60.7520 C   0  0  0  0  0  0  0  0  0  0  0  0
   14.4330   -4.8320   61.1370 C   0  0  0  0  0  0  0  0  0  0  0  0
   14.5560   -6.1470   61.8750 C   0  0  0  0  0  1  0  0  0  0  0  0
   13.1230   -4.4160   60.8340 C   0  0  0  0  0  3  0  0  0  0  0  0
   12.8520   -3.2080   60.1510 C   0  0  0  0  0  0  0  0  0  0  0  0
   13.9620   -2.4250   59.7680 C   0  0  0  0  0  3  0  0  0  0  0  0
   15.2650   -2.8220   60.0630 C   0  0  0  0  0  3  0  0  0  0  0  0
   11.4320   -2.7670   59.8510 C   0  0  0  0  0  0  0  0  0  0  0  0
   10.3730   -3.7030   59.7430 C   0  0  0  0  0  3  0  0  0  0  0  0
    9.0670   -3.2930   59.4640 C   0  0  0  0  0  3  0  0  0  0  0  0
    8.7760   -1.9450   59.2800 C   0  0  0  0  0  3  0  0  0  0  0  0
    9.7940   -0.9960   59.3720 C   0  0  0  0  0  0  0  0  0  0  0  0
   11.1040   -1.4010   59.6570 C   0  0  0  0  0  3  0  0  0  0  0  0
    9.4320    0.7470   59.1330 S   0  0  0  0  0  0  0  0  0  0  0  0
   10.3270    1.2520   57.9890 O   0  0  0  0  0  0  0  0  0  0  0  0
   10.0980    1.5020   60.2940 O   0  0  0  0  0  0  0  0  0  0  0  0
    7.7620    1.4350   58.8970 C   0  0  0  0  0  2  0  0  0  0  0  0
    7.6950    2.3010   57.6440 C   0  0  0  0  0  1  0  0  0  0  0  0
  2  3  1  0  0  0  0
  2  1  1  0  0  0  0
  3  6  1  0  0  0  0
  4  3  2  0  0  0  0
  5  3  2  0  0  0  0
  6  7  2  0  0  0  0
  6 11  1  0  0  0  0
  7  8  1  0  0  0  0
  8 10  1  0  0  0  0
  8  9  1  0  0  0  0
 11 10  2  0  0  0  0
 12  2  1  0  0  0  0
 12 13  1  1  0  0  0
 14 12  1  0  0  0  0
 15 14  2  0  0  0  0
 16 15  1  0  0  0  0
 17 15  1  0  0  0  0
 17 18  1  0  0  0  0
 18 20  2  0  0  0  0
 19 18  1  0  0  0  0
 20 14  1  0  0  0  0
 21  1  1  0  0  0  0
 21 22  1  0  0  0  0
 22 23  1  0  0  0  0
 24 22  2  0  0  0  0
 25 24  1  0  0  0  0
 26 27  1  0  0  0  0
 26 25  2  0  0  0  0
 27 21  2  0  0  0  0
 28 25  1  0  0  0  0
 29 28  1  0  0  0  0
 30 29  2  0  0  0  0
 31 32  2  0  0  0  0
 31 30  1  0  0  0  0
 32 33  1  0  0  0  0
 33 28  2  0  0  0  0
 34 32  1  0  0  0  0
 34 36  2  0  0  0  0
 35 34  2  0  0  0  0
 37 34  1  0  0  0  0
 38 37  1  0  0  0  0
M  END
>  <POSE>
2

>  <SCORE>
-11.870

>  <RMSD_LB_BP>
2.253

>  <RMSD_UB_BP>
5.035

$$$$
/content/1PQ6_Docking/DOCKING/CLC-0000181/CLC-0000181_output.pdbqt
 OpenBabel03072503353D

 38 41  0  0  1  0  0  0  0  0999 V2000
   16.8620   -6.3770   60.0380 C   0  0  0  0  0  2  0  0  0  0  0  0
   18.1980   -5.8190   59.7130 N   0  0  0  0  0  0  0  0  0  0  0  0
   18.6220   -4.5270   60.8990 S   0  0  0  0  0  0  0  0  0  0  0  0
   20.0640   -4.7540   61.3700 O   0  0  0  0  0  0  0  0  0  0  0  0
   17.8300   -4.8390   62.1790 O   0  0  0  0  0  0  0  0  0  0  0  0
   18.3860   -2.8420   60.3490 C   0  0  0  0  0  0  0  0  0  0  0  0
   18.4900   -2.3860   59.0540 C   0  0  0  0  0  3  0  0  0  0  0  0
   18.2780   -1.0600   59.0780 N   0  0  0  0  0  0  0  0  0  0  0  0
   18.3020   -0.1440   57.9450 C   0  0  0  0  0  1  0  0  0  0  0  0
   18.0470   -0.7370   60.3650 C   0  0  0  0  0  3  0  0  0  0  0  0
   18.1090   -1.8150   61.1760 N   0  0  0  0  0  0  0  0  0  0  0  0
   19.2730   -6.8480   59.5910 C   0  0  1  0  0  3  0  0  0  0  0  0
   18.8140   -8.2630   60.0030 C   0  0  0  0  0  1  0  0  0  0  0  0
   19.7360   -6.9420   58.1460 C   0  0  0  0  0  0  0  0  0  0  0  0
   18.9670   -7.3980   57.0590 C   0  0  0  0  0  0  0  0  0  0  0  0
   17.5490   -7.8850   57.0480 C   0  0  0  0  0  1  0  0  0  0  0  0
   19.9040   -7.3220   55.6640 S   0  0  0  0  0  0  0  0  0  0  0  0
   21.2800   -6.7120   56.4040 C   0  0  0  0  0  0  0  0  0  0  0  0
   22.5630   -6.3920   55.7140 C   0  0  0  0  0  1  0  0  0  0  0  0
   21.0350   -6.5550   57.7600 C   0  0  0  0  0  3  0  0  0  0  0  0
   15.7810   -5.3090   59.9800 C   0  0  0  0  0  0  0  0  0  0  0  0
   14.7470   -5.1510   60.9410 C   0  0  0  0  0  0  0  0  0  0  0  0
   14.5570   -6.0310   62.1570 C   0  0  0  0  0  1  0  0  0  0  0  0
   13.8200   -4.1030   60.7880 C   0  0  0  0  0  3  0  0  0  0  0  0
   13.8730   -3.1970   59.7040 C   0  0  0  0  0  0  0  0  0  0  0  0
   14.9020   -3.3900   58.7580 C   0  0  0  0  0  3  0  0  0  0  0  0
   15.8290   -4.4210   58.8960 C   0  0  0  0  0  3  0  0  0  0  0  0
   12.8760   -2.0630   59.5680 C   0  0  0  0  0  0  0  0  0  0  0  0
   13.2830   -0.7610   59.1820 C   0  0  0  0  0  3  0  0  0  0  0  0
   12.3600    0.2820   59.0600 C   0  0  0  0  0  3  0  0  0  0  0  0
   11.0110    0.0630   59.3200 C   0  0  0  0  0  3  0  0  0  0  0  0
   10.5750   -1.2040   59.7080 C   0  0  0  0  0  0  0  0  0  0  0  0
   11.4940   -2.2540   59.8270 C   0  0  0  0  0  3  0  0  0  0  0  0
    8.8370   -1.4980   60.0510 S   0  0  0  0  0  0  0  0  0  0  0  0
    8.7530   -2.2920   61.3650 O   0  0  0  0  0  0  0  0  0  0  0  0
    8.3750   -2.6030   59.0870 O   0  0  0  0  0  0  0  0  0  0  0  0
    7.5540   -0.2050   60.0830 C   0  0  0  0  0  2  0  0  0  0  0  0
    7.8430    0.8830   59.0560 C   0  0  0  0  0  1  0  0  0  0  0  0
  2  1  1  0  0  0  0
  2  3  1  0  0  0  0
  3  4  2  0  0  0  0
  3  5  2  0  0  0  0
  6  3  1  0  0  0  0
  6 11  1  0  0  0  0
  7  8  1  0  0  0  0
  7  6  2  0  0  0  0
  8 10  1  0  0  0  0
  9  8  1  0  0  0  0
 10 11  2  0  0  0  0
 12  2  1  0  0  0  0
 12 13  1  6  0  0  0
 14 12  1  0  0  0  0
 15 14  2  0  0  0  0
 16 15  1  0  0  0  0
 17 18  1  0  0  0  0
 17 15  1  0  0  0  0
 18 20  2  0  0  0  0
 19 18  1  0  0  0  0
 20 14  1  0  0  0  0
 21  1  1  0  0  0  0
 21 22  1  0  0  0  0
 22 23  1  0  0  0  0
 24 22  2  0  0  0  0
 25 24  1  0  0  0  0
 26 27  1  0  0  0  0
 26 25  2  0  0  0  0
 27 21  2  0  0  0  0
 28 25  1  0  0  0  0
 28 33  1  0  0  0  0
 29 28  2  0  0  0  0
 30 29  1  0  0  0  0
 30 31  2  0  0  0  0
 31 32  1  0  0  0  0
 32 33  2  0  0  0  0
 32 34  1  0  0  0  0
 34 37  1  0  0  0  0
 34 35  2  0  0  0  0
 36 34  2  0  0  0  0
 38 37  1  0  0  0  0
M  END
>  <POSE>
3

>  <SCORE>
-11.673

>  <RMSD_LB_BP>
2.309

>  <RMSD_UB_BP>
5.085

$$$$
/content/1PQ6_Docking/DOCKING/CLC-0000181/CLC-0000181_output.pdbqt
 OpenBabel03072503353D

 38 41  0  0  1  0  0  0  0  0999 V2000
   16.6270   -3.5090   60.0830 C   0  0  0  0  0  2  0  0  0  0  0  0
   17.3390   -2.6730   59.0840 N   0  0  0  0  0  0  0  0  0  0  0  0
   18.3690   -1.4590   59.9320 S   0  0  0  0  0  0  0  0  0  0  0  0
   17.5480   -0.1780   60.1290 O   0  0  0  0  0  0  0  0  0  0  0  0
   19.4200   -0.9950   58.9100 O   0  0  0  0  0  0  0  0  0  0  0  0
   19.1080   -1.9890   61.4720 C   0  0  0  0  0  0  0  0  0  0  0  0
   18.8430   -1.4750   62.7220 C   0  0  0  0  0  3  0  0  0  0  0  0
   19.6330   -2.1210   63.5960 N   0  0  0  0  0  0  0  0  0  0  0  0
   19.7140   -1.9060   65.0350 C   0  0  0  0  0  1  0  0  0  0  0  0
   20.3490   -3.0060   62.8760 C   0  0  0  0  0  3  0  0  0  0  0  0
   20.0500   -2.9480   61.5610 N   0  0  0  0  0  0  0  0  0  0  0  0
   18.1070   -3.4580   58.0730 C   0  0  1  0  0  3  0  0  0  0  0  0
   19.5230   -2.9020   57.8140 C   0  0  0  0  0  1  0  0  0  0  0  0
   18.2800   -4.8900   58.5540 C   0  0  0  0  0  0  0  0  0  0  0  0
   18.2600   -6.0410   57.7450 C   0  0  0  0  0  0  0  0  0  0  0  0
   18.0740   -6.1460   56.2610 C   0  0  0  0  0  1  0  0  0  0  0  0
   18.4920   -7.3920   58.7220 S   0  0  0  0  0  0  0  0  0  0  0  0
   18.6250   -6.5490   60.1660 C   0  0  0  0  0  0  0  0  0  0  0  0
   18.8510   -7.1610   61.5070 C   0  0  0  0  0  1  0  0  0  0  0  0
   18.4920   -5.1920   59.9140 C   0  0  0  0  0  3  0  0  0  0  0  0
   15.1210   -3.3110   60.0060 C   0  0  0  0  0  0  0  0  0  0  0  0
   14.1570   -4.2360   60.4890 C   0  0  0  0  0  0  0  0  0  0  0  0
   14.4850   -5.5630   61.1370 C   0  0  0  0  0  1  0  0  0  0  0  0
   12.7890   -3.9240   60.3820 C   0  0  0  0  0  3  0  0  0  0  0  0
   12.3310   -2.7180   59.8030 C   0  0  0  0  0  0  0  0  0  0  0  0
   13.3120   -1.8270   59.3180 C   0  0  0  0  0  3  0  0  0  0  0  0
   14.6710   -2.1200   59.4180 C   0  0  0  0  0  3  0  0  0  0  0  0
   10.8530   -2.3920   59.7140 C   0  0  0  0  0  0  0  0  0  0  0  0
    9.8610   -3.3800   59.9380 C   0  0  0  0  0  3  0  0  0  0  0  0
    8.5000   -3.0750   59.8530 C   0  0  0  0  0  3  0  0  0  0  0  0
    8.0860   -1.7840   59.5400 C   0  0  0  0  0  3  0  0  0  0  0  0
    9.0330   -0.7880   59.3070 C   0  0  0  0  0  0  0  0  0  0  0  0
   10.3990   -1.0860   59.3960 C   0  0  0  0  0  3  0  0  0  0  0  0
    8.5110    0.8820   58.8980 S   0  0  0  0  0  0  0  0  0  0  0  0
    9.1890    1.8360   59.8940 O   0  0  0  0  0  0  0  0  0  0  0  0
    7.0630    1.0280   59.3900 O   0  0  0  0  0  0  0  0  0  0  0  0
    8.6190    1.6230   57.2360 C   0  0  0  0  0  2  0  0  0  0  0  0
    7.4860    2.6140   57.0010 C   0  0  0  0  0  1  0  0  0  0  0  0
  2  3  1  0  0  0  0
  2  1  1  0  0  0  0
  3  4  2  0  0  0  0
  3  6  1  0  0  0  0
  5  3  2  0  0  0  0
  6 11  1  0  0  0  0
  6  7  2  0  0  0  0
  7  8  1  0  0  0  0
  8  9  1  0  0  0  0
 10  8  1  0  0  0  0
 11 10  2  0  0  0  0
 12 13  1  1  0  0  0
 12 14  1  0  0  0  0
 12  2  1  0  0  0  0
 14 20  1  0  0  0  0
 15 14  2  0  0  0  0
 15 17  1  0  0  0  0
 16 15  1  0  0  0  0
 17 18  1  0  0  0  0
 18 19  1  0  0  0  0
 20 18  2  0  0  0  0
 21  1  1  0  0  0  0
 21 22  1  0  0  0  0
 22 23  1  0  0  0  0
 24 22  2  0  0  0  0
 25 24  1  0  0  0  0
 26 27  1  0  0  0  0
 26 25  2  0  0  0  0
 27 21  2  0  0  0  0
 28 25  1  0  0  0  0
 28 29  1  0  0  0  0
 30 29  2  0  0  0  0
 31 30  1  0  0  0  0
 32 33  1  0  0  0  0
 32 31  2  0  0  0  0
 33 28  2  0  0  0  0
 34 32  1  0  0  0  0
 34 36  2  0  0  0  0
 34 35  2  0  0  0  0
 37 34  1  0  0  0  0
 38 37  1  0  0  0  0
M  END
>  <POSE>
4

>  <SCORE>
-11.265

>  <RMSD_LB_BP>
2.417

>  <RMSD_UB_BP>
4.543

$$$$
/content/1PQ6_Docking/DOCKING/CLC-0000181/CLC-0000181_output.pdbqt
 OpenBabel03072503353D

 38 41  0  0  1  0  0  0  0  0999 V2000
   17.6550   -3.7680   59.2180 C   0  0  0  0  0  2  0  0  0  0  0  0
   18.3170   -4.1220   60.4980 N   0  0  0  0  0  0  0  0  0  0  0  0
   18.6600   -5.8930   60.5350 S   0  0  0  0  0  0  0  0  0  0  0  0
   17.4360   -6.6130   61.1150 O   0  0  0  0  0  0  0  0  0  0  0  0
   19.6980   -6.1090   61.6480 O   0  0  0  0  0  0  0  0  0  0  0  0
   19.1630   -6.6310   58.9860 C   0  0  0  0  0  0  0  0  0  0  0  0
   18.3290   -7.1700   58.0310 C   0  0  0  0  0  3  0  0  0  0  0  0
   19.1060   -7.6510   57.0470 N   0  0  0  0  0  0  0  0  0  0  0  0
   18.6690   -8.3250   55.8310 C   0  0  0  0  0  1  0  0  0  0  0  0
   20.3780   -7.3960   57.4090 C   0  0  0  0  0  3  0  0  0  0  0  0
   20.4470   -6.7690   58.6030 N   0  0  0  0  0  0  0  0  0  0  0  0
   19.5290   -3.3050   60.8020 C   0  0  1  0  0  3  0  0  0  0  0  0
   19.6820   -2.0730   59.8850 C   0  0  0  0  0  1  0  0  0  0  0  0
   19.4560   -2.7830   62.2280 C   0  0  0  0  0  0  0  0  0  0  0  0
   20.4930   -2.8260   63.1780 C   0  0  0  0  0  0  0  0  0  0  0  0
   21.8820   -3.3710   63.0310 C   0  0  0  0  0  1  0  0  0  0  0  0
   19.9440   -2.1330   64.6090 S   0  0  0  0  0  0  0  0  0  0  0  0
   18.4040   -1.7670   64.0530 C   0  0  0  0  0  0  0  0  0  0  0  0
   17.3320   -1.1050   64.8510 C   0  0  0  0  0  1  0  0  0  0  0  0
   18.2880   -2.1790   62.7350 C   0  0  0  0  0  3  0  0  0  0  0  0
   16.1950   -3.3980   59.4250 C   0  0  0  0  0  0  0  0  0  0  0  0
   15.6940   -2.0700   59.4650 C   0  0  0  0  0  0  0  0  0  0  0  0
   16.5400   -0.8240   59.3230 C   0  0  0  0  0  1  0  0  0  0  0  0
   14.3130   -1.8600   59.6390 C   0  0  0  0  0  3  0  0  0  0  0  0
   13.3970   -2.9280   59.7810 C   0  0  0  0  0  0  0  0  0  0  0  0
   13.9280   -4.2350   59.7530 C   0  0  0  0  0  3  0  0  0  0  0  0
   15.2920   -4.4600   59.5800 C   0  0  0  0  0  3  0  0  0  0  0  0
   11.9100   -2.6820   59.9470 C   0  0  0  0  0  0  0  0  0  0  0  0
   11.0360   -3.7020   60.4010 C   0  0  0  0  0  3  0  0  0  0  0  0
    9.6660   -3.4710   60.5510 C   0  0  0  0  0  3  0  0  0  0  0  0
    9.1250   -2.2250   60.2510 C   0  0  0  0  0  3  0  0  0  0  0  0
    9.9530   -1.1990   59.7960 C   0  0  0  0  0  0  0  0  0  0  0  0
   11.3280   -1.4230   59.6500 C   0  0  0  0  0  3  0  0  0  0  0  0
    9.2670    0.4130   59.4020 S   0  0  0  0  0  0  0  0  0  0  0  0
   10.0150    0.9460   58.1690 O   0  0  0  0  0  0  0  0  0  0  0  0
    9.8170    1.3980   60.4460 O   0  0  0  0  0  0  0  0  0  0  0  0
    7.4910    0.7570   59.1830 C   0  0  0  0  0  2  0  0  0  0  0  0
    7.2710    2.0810   58.4610 C   0  0  0  0  0  1  0  0  0  0  0  0
  1 21  1  0  0  0  0
  1  2  1  0  0  0  0
  2  3  1  0  0  0  0
  2 12  1  0  0  0  0
  3  4  2  0  0  0  0
  3  5  2  0  0  0  0
  6  3  1  0  0  0  0
  7  6  2  0  0  0  0
  8 10  1  0  0  0  0
  8  7  1  0  0  0  0
  9  8  1  0  0  0  0
 10 11  2  0  0  0  0
 11  6  1  0  0  0  0
 12 13  1  6  0  0  0
 12 14  1  0  0  0  0
 14 20  1  0  0  0  0
 14 15  2  0  0  0  0
 15 17  1  0  0  0  0
 16 15  1  0  0  0  0
 18 17  1  0  0  0  0
 18 19  1  0  0  0  0
 20 18  2  0  0  0  0
 21 22  2  0  0  0  0
 21 27  1  0  0  0  0
 22 24  1  0  0  0  0
 23 22  1  0  0  0  0
 24 25  2  0  0  0  0
 25 28  1  0  0  0  0
 26 25  1  0  0  0  0
 27 26  2  0  0  0  0
 28 29  1  0  0  0  0
 29 30  2  0  0  0  0
 31 30  1  0  0  0  0
 32 31  2  0  0  0  0
 33 32  1  0  0  0  0
 33 28  2  0  0  0  0
 34 32  1  0  0  0  0
 34 36  2  0  0  0  0
 35 34  2  0  0  0  0
 37 34  1  0  0  0  0
 38 37  1  0  0  0  0
M  END
>  <POSE>
5

>  <SCORE>
-11.219

>  <RMSD_LB_BP>
0.979

>  <RMSD_UB_BP>
1.706

$$$$
/content/1PQ6_Docking/DOCKING/CLC-0000181/CLC-0000181_output.pdbqt
 OpenBabel03072503353D

 38 41  0  0  1  0  0  0  0  0999 V2000
   18.7520   -2.8650   58.7590 C   0  0  0  0  0  2  0  0  0  0  0  0
   19.1440   -4.2960   58.7420 N   0  0  0  0  0  0  0  0  0  0  0  0
   18.9520   -4.9990   60.3930 S   0  0  0  0  0  0  0  0  0  0  0  0
   19.9170   -6.1830   60.5320 O   0  0  0  0  0  0  0  0  0  0  0  0
   17.5900   -5.7110   60.4040 O   0  0  0  0  0  0  0  0  0  0  0  0
   19.1350   -3.8610   61.7600 C   0  0  0  0  0  0  0  0  0  0  0  0
   20.2740   -3.6610   62.5080 C   0  0  0  0  0  3  0  0  0  0  0  0
   19.9780   -2.7560   63.4550 N   0  0  0  0  0  0  0  0  0  0  0  0
   20.8650   -2.2420   64.4900 C   0  0  0  0  0  1  0  0  0  0  0  0
   18.6860   -2.4210   63.2680 C   0  0  0  0  0  3  0  0  0  0  0  0
   18.1360   -3.0870   62.2310 N   0  0  0  0  0  0  0  0  0  0  0  0
   18.4440   -5.1040   57.7000 C   0  0  1  0  0  3  0  0  0  0  0  0
   18.0280   -4.2800   56.4630 C   0  0  0  0  0  1  0  0  0  0  0  0
   19.3620   -6.2090   57.2010 C   0  0  0  0  0  0  0  0  0  0  0  0
   19.1580   -7.5920   57.3680 C   0  0  0  0  0  0  0  0  0  0  0  0
   18.0260   -8.3000   58.0510 C   0  0  0  0  0  1  0  0  0  0  0  0
   20.4350   -8.4170   56.6500 S   0  0  0  0  0  0  0  0  0  0  0  0
   21.2550   -7.0540   56.1180 C   0  0  0  0  0  0  0  0  0  0  0  0
   22.5420   -7.0580   55.3650 C   0  0  0  0  0  1  0  0  0  0  0  0
   20.5440   -5.9230   56.4900 C   0  0  0  0  0  3  0  0  0  0  0  0
   17.2700   -2.6930   59.0540 C   0  0  0  0  0  0  0  0  0  0  0  0
   16.6350   -1.4490   59.3110 C   0  0  0  0  0  0  0  0  0  0  0  0
   17.3400   -0.1120   59.3480 C   0  0  0  0  0  1  0  0  0  0  0  0
   15.2470   -1.4210   59.5450 C   0  0  0  0  0  3  0  0  0  0  0  0
   14.4550   -2.5920   59.5380 C   0  0  0  0  0  0  0  0  0  0  0  0
   15.1180   -3.8130   59.2950 C   0  0  0  0  0  3  0  0  0  0  0  0
   16.4900   -3.8580   59.0600 C   0  0  0  0  0  3  0  0  0  0  0  0
   12.9570   -2.5380   59.7730 C   0  0  0  0  0  0  0  0  0  0  0  0
   12.2270   -3.6870   60.1660 C   0  0  0  0  0  3  0  0  0  0  0  0
   10.8470   -3.6330   60.3800 C   0  0  0  0  0  3  0  0  0  0  0  0
   10.1530   -2.4400   60.2040 C   0  0  0  0  0  3  0  0  0  0  0  0
   10.8380   -1.2900   59.8110 C   0  0  0  0  0  0  0  0  0  0  0  0
   12.2220   -1.3370   59.6020 C   0  0  0  0  0  3  0  0  0  0  0  0
    9.9530    0.2560   59.5780 S   0  0  0  0  0  0  0  0  0  0  0  0
   10.6600    1.0280   58.4520 O   0  0  0  0  0  0  0  0  0  0  0  0
   10.3350    1.1680   60.7540 O   0  0  0  0  0  0  0  0  0  0  0  0
    8.1550    0.3910   59.3190 C   0  0  0  0  0  2  0  0  0  0  0  0
    7.8050    1.6480   58.5320 C   0  0  0  0  0  1  0  0  0  0  0  0
  1 21  1  0  0  0  0
  2  1  1  0  0  0  0
  2  3  1  0  0  0  0
  3  5  2  0  0  0  0
  3  4  2  0  0  0  0
  3  6  1  0  0  0  0
  6 11  1  0  0  0  0
  6  7  2  0  0  0  0
  7  8  1  0  0  0  0
  8  9  1  0  0  0  0
 10  8  1  0  0  0  0
 11 10  2  0  0  0  0
 12 13  1  6  0  0  0
 12  2  1  0  0  0  0
 14 15  2  0  0  0  0
 14 12  1  0  0  0  0
 15 16  1  0  0  0  0
 17 15  1  0  0  0  0
 18 20  2  0  0  0  0
 18 17  1  0  0  0  0
 19 18  1  0  0  0  0
 20 14  1  0  0  0  0
 21 27  2  0  0  0  0
 21 22  1  0  0  0  0
 22 23  1  0  0  0  0
 22 24  2  0  0  0  0
 25 24  1  0  0  0  0
 25 28  1  0  0  0  0
 26 25  2  0  0  0  0
 27 26  1  0  0  0  0
 28 29  1  0  0  0  0
 29 30  2  0  0  0  0
 31 30  1  0  0  0  0
 32 31  2  0  0  0  0
 33 28  2  0  0  0  0
 33 32  1  0  0  0  0
 34 32  1  0  0  0  0
 34 36  2  0  0  0  0
 35 34  2  0  0  0  0
 37 34  1  0  0  0  0
 38 37  1  0  0  0  0
M  END
>  <POSE>
6

>  <SCORE>
-10.946

>  <RMSD_LB_BP>
1.754

>  <RMSD_UB_BP>
4.840

$$$$
/content/1PQ6_Docking/DOCKING/CLC-0000181/CLC-0000181_output.pdbqt
 OpenBabel03072503353D

 38 41  0  0  1  0  0  0  0  0999 V2000
   16.9720   -4.1430   59.1690 C   0  0  0  0  0  2  0  0  0  0  0  0
   17.3950   -5.1420   60.1820 N   0  0  0  0  0  0  0  0  0  0  0  0
   18.1130   -6.5780   59.3560 S   0  0  0  0  0  0  0  0  0  0  0  0
   16.9730   -7.5020   58.9100 O   0  0  0  0  0  0  0  0  0  0  0  0
   18.7780   -7.4210   60.4560 O   0  0  0  0  0  0  0  0  0  0  0  0
   19.2260   -6.2320   58.0000 C   0  0  0  0  0  0  0  0  0  0  0  0
   20.5420   -6.6260   57.9060 C   0  0  0  0  0  3  0  0  0  0  0  0
   21.0270   -6.1310   56.7550 N   0  0  0  0  0  0  0  0  0  0  0  0
   22.3810   -6.2750   56.2350 C   0  0  0  0  0  1  0  0  0  0  0  0
   20.0130   -5.4600   56.1740 C   0  0  0  0  0  3  0  0  0  0  0  0
   18.8880   -5.5020   56.9190 N   0  0  0  0  0  0  0  0  0  0  0  0
   18.2920   -4.5920   61.2400 C   0  0  1  0  0  3  0  0  0  0  0  0
   19.6460   -5.3270   61.3370 C   0  0  0  0  0  1  0  0  0  0  0  0
   18.6050   -3.1340   60.9450 C   0  0  0  0  0  0  0  0  0  0  0  0
   18.3410   -2.0440   61.7950 C   0  0  0  0  0  0  0  0  0  0  0  0
   17.7130   -2.0420   63.1560 C   0  0  0  0  0  1  0  0  0  0  0  0
   18.8610   -0.6320   61.0410 S   0  0  0  0  0  0  0  0  0  0  0  0
   19.4260   -1.3720   59.6450 C   0  0  0  0  0  0  0  0  0  0  0  0
   20.0480   -0.6700   58.4860 C   0  0  0  0  0  1  0  0  0  0  0  0
   19.2200   -2.7400   59.7410 C   0  0  0  0  0  3  0  0  0  0  0  0
   15.5430   -3.6810   59.4010 C   0  0  0  0  0  0  0  0  0  0  0  0
   15.1050   -2.3310   59.3200 C   0  0  0  0  0  0  0  0  0  0  0  0
   15.9990   -1.1520   59.0070 C   0  0  0  0  0  1  0  0  0  0  0  0
   13.7460   -2.0350   59.5320 C   0  0  0  0  0  3  0  0  0  0  0  0
   12.7910   -3.0340   59.8300 C   0  0  0  0  0  0  0  0  0  0  0  0
   13.2600   -4.3620   59.9190 C   0  0  0  0  0  3  0  0  0  0  0  0
   14.6020   -4.6730   59.7100 C   0  0  0  0  0  3  0  0  0  0  0  0
   11.3270   -2.6970   60.0360 C   0  0  0  0  0  0  0  0  0  0  0  0
   10.4260   -3.6270   60.6150 C   0  0  0  0  0  3  0  0  0  0  0  0
    9.0780   -3.3120   60.8010 C   0  0  0  0  0  3  0  0  0  0  0  0
    8.5850   -2.0700   60.4140 C   0  0  0  0  0  3  0  0  0  0  0  0
    9.4390   -1.1320   59.8350 C   0  0  0  0  0  0  0  0  0  0  0  0
   10.7940   -1.4400   59.6520 C   0  0  0  0  0  3  0  0  0  0  0  0
    8.8150    0.4740   59.3280 S   0  0  0  0  0  0  0  0  0  0  0  0
    9.4060    1.5230   60.2840 O   0  0  0  0  0  0  0  0  0  0  0  0
    7.3500    0.5460   59.7880 O   0  0  0  0  0  0  0  0  0  0  0  0
    8.9060    1.1320   57.6320 C   0  0  0  0  0  2  0  0  0  0  0  0
    7.8980    2.2550   57.4220 C   0  0  0  0  0  1  0  0  0  0  0  0
  1 21  1  0  0  0  0
  1  2  1  0  0  0  0
  2 12  1  0  0  0  0
  3  2  1  0  0  0  0
  3  5  2  0  0  0  0
  4  3  2  0  0  0  0
  6  3  1  0  0  0  0
  7  6  2  0  0  0  0
  8  7  1  0  0  0  0
  9  8  1  0  0  0  0
 10  8  1  0  0  0  0
 10 11  2  0  0  0  0
 11  6  1  0  0  0  0
 12 13  1  6  0  0  0
 14 12  1  0  0  0  0
 14 15  2  0  0  0  0
 15 16  1  0  0  0  0
 17 15  1  0  0  0  0
 18 20  2  0  0  0  0
 18 17  1  0  0  0  0
 19 18  1  0  0  0  0
 20 14  1  0  0  0  0
 21 27  1  0  0  0  0
 22 21  2  0  0  0  0
 22 24  1  0  0  0  0
 23 22  1  0  0  0  0
 24 25  2  0  0  0  0
 25 26  1  0  0  0  0
 25 28  1  0  0  0  0
 27 26  2  0  0  0  0
 28 29  1  0  0  0  0
 29 30  2  0  0  0  0
 31 30  1  0  0  0  0
 32 31  2  0  0  0  0
 33 32  1  0  0  0  0
 33 28  2  0  0  0  0
 34 36  2  0  0  0  0
 34 32  1  0  0  0  0
 34 35  2  0  0  0  0
 37 34  1  0  0  0  0
 38 37  1  0  0  0  0
M  END
>  <POSE>
7

>  <SCORE>
-10.474

>  <RMSD_LB_BP>
1.558

>  <RMSD_UB_BP>
2.060

$$$$
