/content/1PQ6_Docking/DOCKING/CLC-0000194/CLC-0000194_output.pdbqt
 OpenBabel03072503353D

 40 43  0  0  1  0  0  0  0  0999 V2000
   17.8550   -4.3140   60.3230 N   0  0  0  0  0  0  0  0  0  0  0  0
   17.7600   -6.0950   60.5460 S   0  0  0  0  0  0  0  0  0  0  0  0
   16.2940   -6.4530   60.8170 O   0  0  0  0  0  0  0  0  0  0  0  0
   18.4200   -6.3950   61.9000 O   0  0  0  0  0  0  0  0  0  0  0  0
   18.4290   -7.0900   59.2190 C   0  0  0  0  0  0  0  0  0  0  0  0
   19.7070   -7.0170   58.7130 C   0  0  0  0  0  3  0  0  0  0  0  0
   19.7920   -7.9040   57.7090 N   0  0  0  0  0  0  0  0  0  0  0  0
   20.9500   -8.1730   56.8670 C   0  0  0  0  0  1  0  0  0  0  0  0
   18.5850   -8.4970   57.6250 C   0  0  0  0  0  3  0  0  0  0  0  0
   17.7210   -8.0160   58.5430 N   0  0  0  0  0  0  0  0  0  0  0  0
   17.2330   -3.8970   59.0490 C   0  0  0  0  0  2  0  0  0  0  0  0
   15.7830   -3.5090   59.2550 C   0  0  0  0  0  0  0  0  0  0  0  0
   15.3510   -2.1620   59.3000 C   0  0  0  0  0  0  0  0  0  0  0  0
   16.2840   -0.9900   59.1200 C   0  0  0  0  0  1  0  0  0  0  0  0
   13.9920   -1.8770   59.5260 C   0  0  0  0  0  3  0  0  0  0  0  0
   13.0300   -2.9010   59.7090 C   0  0  0  0  0  0  0  0  0  0  0  0
   13.4920   -4.2340   59.6450 C   0  0  0  0  0  3  0  0  0  0  0  0
   14.8360   -4.5270   59.4210 C   0  0  0  0  0  3  0  0  0  0  0  0
   11.5690   -2.5830   59.9650 C   0  0  0  0  0  0  0  0  0  0  0  0
   10.7050   -3.5230   60.5830 C   0  0  0  0  0  3  0  0  0  0  0  0
    9.3610   -3.2270   60.8190 C   0  0  0  0  0  3  0  0  0  0  0  0
    8.8350   -1.9940   60.4480 C   0  0  0  0  0  3  0  0  0  0  0  0
    9.6550   -1.0440   59.8390 C   0  0  0  0  0  0  0  0  0  0  0  0
   11.0040   -1.3340   59.6000 C   0  0  0  0  0  3  0  0  0  0  0  0
    8.9750    0.5440   59.3480 S   0  0  0  0  0  0  0  0  0  0  0  0
    9.5340    1.5960   60.3180 O   0  0  0  0  0  0  0  0  0  0  0  0
    7.5060    0.5700   59.8010 O   0  0  0  0  0  0  0  0  0  0  0  0
    9.0610    1.2240   57.6600 C   0  0  0  0  0  2  0  0  0  0  0  0
    7.9440    2.2310   57.4140 C   0  0  0  0  0  1  0  0  0  0  0  0
   19.1810   -3.6930   60.5980 C   0  0  2  0  0  3  0  0  0  0  0  0
   19.2750   -3.0680   62.0040 C   0  0  0  0  0  0  0  0  0  0  0  0
   18.3320   -2.3020   62.7450 C   0  0  0  0  0  0  0  0  0  0  0  0
   16.9280   -1.8640   62.4420 C   0  0  0  0  0  1  0  0  0  0  0  0
   19.0190   -1.8800   64.2220 S   0  0  0  0  0  0  0  0  0  0  0  0
   20.4920   -2.6210   63.9690 C   0  0  0  0  0  0  0  0  0  0  0  0
   21.6370   -2.6280   64.9270 C   0  0  0  0  0  1  0  0  0  0  0  0
   20.4820   -3.2190   62.7230 C   0  0  0  0  0  3  0  0  0  0  0  0
   19.6220   -2.8650   59.3700 C   0  0  0  0  0  2  0  0  0  0  0  0
   19.5710   -1.3480   59.6250 C   0  0  0  0  0  2  0  0  0  0  0  0
   19.9420   -0.5680   58.3670 C   0  0  0  0  0  1  0  0  0  0  0  0
  1  2  1  0  0  0  0
  1 30  1  0  0  0  0
  2  3  2  0  0  0  0
  2  4  2  0  0  0  0
  5  2  1  0  0  0  0
  6  5  2  0  0  0  0
  7  6  1  0  0  0  0
  8  7  1  0  0  0  0
  9  7  1  0  0  0  0
  9 10  2  0  0  0  0
 10  5  1  0  0  0  0
 11 12  1  0  0  0  0
 11  1  1  0  0  0  0
 12 13  2  0  0  0  0
 12 18  1  0  0  0  0
 13 15  1  0  0  0  0
 14 13  1  0  0  0  0
 15 16  2  0  0  0  0
 16 19  1  0  0  0  0
 17 16  1  0  0  0  0
 18 17  2  0  0  0  0
 19 20  1  0  0  0  0
 20 21  2  0  0  0  0
 22 21  1  0  0  0  0
 23 22  2  0  0  0  0
 24 23  1  0  0  0  0
 24 19  2  0  0  0  0
 25 27  2  0  0  0  0
 25 23  1  0  0  0  0
 25 26  2  0  0  0  0
 28 25  1  0  0  0  0
 29 28  1  0  0  0  0
 30 38  1  6  0  0  0
 30 31  1  0  0  0  0
 31 37  1  0  0  0  0
 31 32  2  0  0  0  0
 32 34  1  0  0  0  0
 33 32  1  0  0  0  0
 35 34  1  0  0  0  0
 35 36  1  0  0  0  0
 37 35  2  0  0  0  0
 38 39  1  0  0  0  0
 40 39  1  0  0  0  0
M  END
>  <POSE>
1

>  <SCORE>
-11.423

>  <RMSD_LB_BP>
0.000

>  <RMSD_UB_BP>
0.000

$$$$
/content/1PQ6_Docking/DOCKING/CLC-0000194/CLC-0000194_output.pdbqt
 OpenBabel03072503353D

 40 43  0  0  1  0  0  0  0  0999 V2000
   17.6340   -4.6820   59.5220 N   0  0  0  0  0  0  0  0  0  0  0  0
   18.8350   -5.0920   60.7940 S   0  0  0  0  0  0  0  0  0  0  0  0
   20.0990   -5.6060   60.0940 O   0  0  0  0  0  0  0  0  0  0  0  0
   18.3130   -6.3610   61.4860 O   0  0  0  0  0  0  0  0  0  0  0  0
   19.2270   -3.7900   61.9550 C   0  0  0  0  0  0  0  0  0  0  0  0
   20.3350   -3.7340   62.7700 C   0  0  0  0  0  3  0  0  0  0  0  0
   20.2330   -2.6170   63.5080 N   0  0  0  0  0  0  0  0  0  0  0  0
   21.1660   -2.1430   64.5220 C   0  0  0  0  0  1  0  0  0  0  0  0
   19.0850   -2.0190   63.1330 C   0  0  0  0  0  3  0  0  0  0  0  0
   18.4410   -2.7180   62.1770 N   0  0  0  0  0  0  0  0  0  0  0  0
   16.5240   -5.6570   59.4950 C   0  0  0  0  0  2  0  0  0  0  0  0
   15.1920   -4.9690   59.7160 C   0  0  0  0  0  0  0  0  0  0  0  0
   14.4080   -5.1740   60.8760 C   0  0  0  0  0  0  0  0  0  0  0  0
   14.8350   -6.0710   62.0120 C   0  0  0  0  0  1  0  0  0  0  0  0
   13.1660   -4.5240   60.9970 C   0  0  0  0  0  3  0  0  0  0  0  0
   12.6680   -3.6610   59.9900 C   0  0  0  0  0  0  0  0  0  0  0  0
   13.4810   -3.4680   58.8520 C   0  0  0  0  0  3  0  0  0  0  0  0
   14.7130   -4.1060   58.7220 C   0  0  0  0  0  3  0  0  0  0  0  0
   11.3220   -2.9750   60.1250 C   0  0  0  0  0  0  0  0  0  0  0  0
   10.1970   -3.6530   60.6620 C   0  0  0  0  0  3  0  0  0  0  0  0
    8.9600   -3.0180   60.7870 C   0  0  0  0  0  3  0  0  0  0  0  0
    8.8010   -1.6970   60.3830 C   0  0  0  0  0  3  0  0  0  0  0  0
    9.8850   -0.9980   59.8520 C   0  0  0  0  0  0  0  0  0  0  0  0
   11.1290   -1.6280   59.7240 C   0  0  0  0  0  3  0  0  0  0  0  0
    9.6790    0.7040   59.3180 S   0  0  0  0  0  0  0  0  0  0  0  0
   10.8090    1.0060   58.3210 O   0  0  0  0  0  0  0  0  0  0  0  0
   10.1450    1.6030   60.4730 O   0  0  0  0  0  0  0  0  0  0  0  0
    8.1310    1.3940   58.6490 C   0  0  0  0  0  2  0  0  0  0  0  0
    8.3290    1.9260   57.2360 C   0  0  0  0  0  1  0  0  0  0  0  0
   18.1920   -4.3400   58.1840 C   0  0  2  0  0  3  0  0  0  0  0  0
   18.9970   -5.4920   57.5530 C   0  0  0  0  0  0  0  0  0  0  0  0
   18.6900   -6.8760   57.4200 C   0  0  0  0  0  0  0  0  0  0  0  0
   17.4860   -7.6840   57.8100 C   0  0  0  0  0  1  0  0  0  0  0  0
   19.9770   -7.6430   56.6540 S   0  0  0  0  0  0  0  0  0  0  0  0
   20.9390   -6.2910   56.4860 C   0  0  0  0  0  0  0  0  0  0  0  0
   22.2960   -6.2610   55.8680 C   0  0  0  0  0  1  0  0  0  0  0  0
   20.2750   -5.2040   57.0230 C   0  0  0  0  0  3  0  0  0  0  0  0
   18.8090   -2.9240   58.2350 C   0  0  0  0  0  2  0  0  0  0  0  0
   17.8010   -1.8510   58.6860 C   0  0  0  0  0  2  0  0  0  0  0  0
   18.2390   -0.4630   58.2300 C   0  0  0  0  0  1  0  0  0  0  0  0
  1  2  1  0  0  0  0
  2  4  2  0  0  0  0
  2  5  1  0  0  0  0
  3  2  2  0  0  0  0
  5 10  1  0  0  0  0
  5  6  2  0  0  0  0
  6  7  1  0  0  0  0
  7  8  1  0  0  0  0
  9  7  1  0  0  0  0
 10  9  2  0  0  0  0
 11  1  1  0  0  0  0
 11 12  1  0  0  0  0
 12 13  1  0  0  0  0
 13 15  2  0  0  0  0
 13 14  1  0  0  0  0
 16 19  1  0  0  0  0
 16 15  1  0  0  0  0
 17 16  2  0  0  0  0
 18 17  1  0  0  0  0
 18 12  2  0  0  0  0
 19 20  1  0  0  0  0
 20 21  2  0  0  0  0
 22 21  1  0  0  0  0
 23 22  2  0  0  0  0
 24 23  1  0  0  0  0
 24 19  2  0  0  0  0
 25 23  1  0  0  0  0
 25 27  2  0  0  0  0
 26 25  2  0  0  0  0
 28 25  1  0  0  0  0
 29 28  1  0  0  0  0
 30 38  1  1  0  0  0
 30  1  1  0  0  0  0
 31 30  1  0  0  0  0
 32 31  2  0  0  0  0
 32 33  1  0  0  0  0
 34 32  1  0  0  0  0
 35 34  1  0  0  0  0
 35 37  2  0  0  0  0
 36 35  1  0  0  0  0
 37 31  1  0  0  0  0
 38 39  1  0  0  0  0
 40 39  1  0  0  0  0
M  END
>  <POSE>
2

>  <SCORE>
-10.574

>  <RMSD_LB_BP>
1.773

>  <RMSD_UB_BP>
4.645

$$$$
/content/1PQ6_Docking/DOCKING/CLC-0000194/CLC-0000194_output.pdbqt
 OpenBabel03072503353D

 40 43  0  0  1  0  0  0  0  0999 V2000
   17.6930   -4.5480   59.7720 N   0  0  0  0  0  0  0  0  0  0  0  0
   18.7620   -5.0440   61.1290 S   0  0  0  0  0  0  0  0  0  0  0  0
   19.9890   -5.7390   60.5260 O   0  0  0  0  0  0  0  0  0  0  0  0
   18.0490   -6.2070   61.8360 O   0  0  0  0  0  0  0  0  0  0  0  0
   19.2490   -3.7480   62.2610 C   0  0  0  0  0  0  0  0  0  0  0  0
   20.4300   -3.6850   62.9650 C   0  0  0  0  0  3  0  0  0  0  0  0
   20.3870   -2.5780   63.7220 N   0  0  0  0  0  0  0  0  0  0  0  0
   21.4080   -2.1010   64.6460 C   0  0  0  0  0  1  0  0  0  0  0  0
   19.2000   -1.9920   63.4670 C   0  0  0  0  0  3  0  0  0  0  0  0
   18.4750   -2.6900   62.5710 N   0  0  0  0  0  0  0  0  0  0  0  0
   16.6030   -5.5230   59.5610 C   0  0  0  0  0  2  0  0  0  0  0  0
   15.2490   -4.8750   59.7640 C   0  0  0  0  0  0  0  0  0  0  0  0
   14.4660   -5.0850   60.9240 C   0  0  0  0  0  0  0  0  0  0  0  0
   14.9150   -5.9490   62.0770 C   0  0  0  0  0  1  0  0  0  0  0  0
   13.2030   -4.4740   61.0280 C   0  0  0  0  0  3  0  0  0  0  0  0
   12.6830   -3.6440   60.0050 C   0  0  0  0  0  0  0  0  0  0  0  0
   13.4950   -3.4440   58.8670 C   0  0  0  0  0  3  0  0  0  0  0  0
   14.7480   -4.0440   58.7530 C   0  0  0  0  0  3  0  0  0  0  0  0
   11.3150   -2.9990   60.1220 C   0  0  0  0  0  0  0  0  0  0  0  0
   10.1990   -3.7180   60.6230 C   0  0  0  0  0  3  0  0  0  0  0  0
    8.9410   -3.1210   60.7320 C   0  0  0  0  0  3  0  0  0  0  0  0
    8.7530   -1.7980   60.3460 C   0  0  0  0  0  3  0  0  0  0  0  0
    9.8270   -1.0600   59.8500 C   0  0  0  0  0  0  0  0  0  0  0  0
   11.0920   -1.6520   59.7390 C   0  0  0  0  0  3  0  0  0  0  0  0
    9.5830    0.6440   59.3400 S   0  0  0  0  0  0  0  0  0  0  0  0
   10.6710    0.9680   58.3050 O   0  0  0  0  0  0  0  0  0  0  0  0
   10.0820    1.5390   60.4860 O   0  0  0  0  0  0  0  0  0  0  0  0
    8.0040    1.3230   58.7370 C   0  0  0  0  0  2  0  0  0  0  0  0
    8.2090    2.1670   57.4850 C   0  0  0  0  0  1  0  0  0  0  0  0
   18.3820   -4.1080   58.5270 C   0  0  2  0  0  3  0  0  0  0  0  0
   18.6620   -2.5930   58.4930 C   0  0  0  0  0  0  0  0  0  0  0  0
   17.8270   -1.4880   58.8200 C   0  0  0  0  0  0  0  0  0  0  0  0
   16.4180   -1.4040   59.3310 C   0  0  0  0  0  1  0  0  0  0  0  0
   18.6890   -0.0650   58.5630 S   0  0  0  0  0  0  0  0  0  0  0  0
   20.0980   -0.7850   58.0340 C   0  0  0  0  0  0  0  0  0  0  0  0
   21.3330   -0.0650   57.6070 C   0  0  0  0  0  1  0  0  0  0  0  0
   19.9290   -2.1560   58.0470 C   0  0  0  0  0  3  0  0  0  0  0  0
   17.7130   -4.7830   57.3080 C   0  0  0  0  0  2  0  0  0  0  0  0
   18.7340   -5.3540   56.3080 C   0  0  0  0  0  2  0  0  0  0  0  0
   19.8990   -6.0190   57.0350 C   0  0  0  0  0  1  0  0  0  0  0  0
  1  2  1  0  0  0  0
  2  4  2  0  0  0  0
  2  5  1  0  0  0  0
  3  2  2  0  0  0  0
  5 10  1  0  0  0  0
  5  6  2  0  0  0  0
  6  7  1  0  0  0  0
  7  8  1  0  0  0  0
  9  7  1  0  0  0  0
 10  9  2  0  0  0  0
 11 12  1  0  0  0  0
 11  1  1  0  0  0  0
 12 13  1  0  0  0  0
 13 15  2  0  0  0  0
 13 14  1  0  0  0  0
 16 19  1  0  0  0  0
 16 15  1  0  0  0  0
 17 16  2  0  0  0  0
 18 17  1  0  0  0  0
 18 12  2  0  0  0  0
 19 20  1  0  0  0  0
 20 21  2  0  0  0  0
 22 21  1  0  0  0  0
 23 22  2  0  0  0  0
 24 23  1  0  0  0  0
 24 19  2  0  0  0  0
 25 23  1  0  0  0  0
 25 27  2  0  0  0  0
 26 25  2  0  0  0  0
 28 25  1  0  0  0  0
 29 28  1  0  0  0  0
 30 38  1  6  0  0  0
 30  1  1  0  0  0  0
 31 30  1  0  0  0  0
 31 32  2  0  0  0  0
 32 33  1  0  0  0  0
 34 32  1  0  0  0  0
 35 37  2  0  0  0  0
 35 34  1  0  0  0  0
 36 35  1  0  0  0  0
 37 31  1  0  0  0  0
 39 40  1  0  0  0  0
 39 38  1  0  0  0  0
M  END
>  <POSE>
3

>  <SCORE>
-10.352

>  <RMSD_LB_BP>
1.830

>  <RMSD_UB_BP>
4.208

$$$$
/content/1PQ6_Docking/DOCKING/CLC-0000194/CLC-0000194_output.pdbqt
 OpenBabel03072503353D

 40 43  0  0  1  0  0  0  0  0999 V2000
   18.1570   -5.5260   59.8640 N   0  0  0  0  0  0  0  0  0  0  0  0
   18.4870   -4.1880   61.0170 S   0  0  0  0  0  0  0  0  0  0  0  0
   19.8800   -4.4190   61.6140 O   0  0  0  0  0  0  0  0  0  0  0  0
   17.5740   -4.4290   62.2290 O   0  0  0  0  0  0  0  0  0  0  0  0
   18.3350   -2.5300   60.3630 C   0  0  0  0  0  0  0  0  0  0  0  0
   18.4870   -2.1590   59.0460 C   0  0  0  0  0  3  0  0  0  0  0  0
   18.3290   -0.8270   58.9850 N   0  0  0  0  0  0  0  0  0  0  0  0
   18.4130    0.0160   57.7990 C   0  0  0  0  0  1  0  0  0  0  0  0
   18.0830   -0.4170   60.2450 C   0  0  0  0  0  3  0  0  0  0  0  0
   18.0820   -1.4440   61.1190 N   0  0  0  0  0  0  0  0  0  0  0  0
   16.8130   -6.1010   60.0770 C   0  0  0  0  0  2  0  0  0  0  0  0
   15.7460   -5.0270   60.0060 C   0  0  0  0  0  0  0  0  0  0  0  0
   14.6420   -4.9850   60.8900 C   0  0  0  0  0  0  0  0  0  0  0  0
   14.4380   -5.9850   62.0020 C   0  0  0  0  0  1  0  0  0  0  0  0
   13.6740   -3.9750   60.7440 C   0  0  0  0  0  3  0  0  0  0  0  0
   13.7660   -2.9860   59.7340 C   0  0  0  0  0  0  0  0  0  0  0  0
   14.8870   -3.0490   58.8770 C   0  0  0  0  0  3  0  0  0  0  0  0
   15.8530   -4.0450   59.0130 C   0  0  0  0  0  3  0  0  0  0  0  0
   12.7100   -1.9080   59.5770 C   0  0  0  0  0  0  0  0  0  0  0  0
   13.0480   -0.6010   59.1430 C   0  0  0  0  0  3  0  0  0  0  0  0
   12.0740    0.3890   58.9980 C   0  0  0  0  0  3  0  0  0  0  0  0
   10.7400    0.1120   59.2790 C   0  0  0  0  0  3  0  0  0  0  0  0
   10.3710   -1.1630   59.7060 C   0  0  0  0  0  0  0  0  0  0  0  0
   11.3430   -2.1610   59.8540 C   0  0  0  0  0  3  0  0  0  0  0  0
    8.6510   -1.5190   60.0810 S   0  0  0  0  0  0  0  0  0  0  0  0
    8.6390   -2.5350   61.2340 O   0  0  0  0  0  0  0  0  0  0  0  0
    8.1210   -2.4320   58.9640 O   0  0  0  0  0  0  0  0  0  0  0  0
    7.3880   -0.2520   60.4270 C   0  0  0  0  0  2  0  0  0  0  0  0
    7.2710    0.7380   59.2750 C   0  0  0  0  0  1  0  0  0  0  0  0
   19.2440   -6.5310   59.7040 C   0  0  2  0  0  3  0  0  0  0  0  0
   19.6310   -6.7750   58.2320 C   0  0  0  0  0  0  0  0  0  0  0  0
   18.8870   -7.3380   57.1580 C   0  0  0  0  0  0  0  0  0  0  0  0
   17.4810   -7.8580   57.0670 C   0  0  0  0  0  1  0  0  0  0  0  0
   19.8560   -7.3600   55.7820 S   0  0  0  0  0  0  0  0  0  0  0  0
   21.2110   -6.6900   56.4880 C   0  0  0  0  0  0  0  0  0  0  0  0
   22.5070   -6.4240   55.8000 C   0  0  0  0  0  1  0  0  0  0  0  0
   20.9360   -6.4300   57.8180 C   0  0  0  0  0  3  0  0  0  0  0  0
   18.9590   -7.7410   60.6220 C   0  0  0  0  0  2  0  0  0  0  0  0
   19.5280   -9.0590   60.0650 C   0  0  0  0  0  2  0  0  0  0  0  0
   19.7660  -10.0680   61.1840 C   0  0  0  0  0  1  0  0  0  0  0  0
  1 11  1  0  0  0  0
  1  2  1  0  0  0  0
  2  3  2  0  0  0  0
  2  4  2  0  0  0  0
  5  2  1  0  0  0  0
  5 10  1  0  0  0  0
  6  5  2  0  0  0  0
  7  6  1  0  0  0  0
  7  9  1  0  0  0  0
  8  7  1  0  0  0  0
  9 10  2  0  0  0  0
 12 11  1  0  0  0  0
 12 13  1  0  0  0  0
 13 14  1  0  0  0  0
 15 13  2  0  0  0  0
 16 15  1  0  0  0  0
 17 18  1  0  0  0  0
 17 16  2  0  0  0  0
 18 12  2  0  0  0  0
 19 16  1  0  0  0  0
 19 24  1  0  0  0  0
 20 19  2  0  0  0  0
 21 20  1  0  0  0  0
 21 22  2  0  0  0  0
 22 23  1  0  0  0  0
 23 24  2  0  0  0  0
 23 25  1  0  0  0  0
 25 28  1  0  0  0  0
 25 26  2  0  0  0  0
 27 25  2  0  0  0  0
 29 28  1  0  0  0  0
 30  1  1  0  0  0  0
 30 38  1  6  0  0  0
 31 30  1  0  0  0  0
 32 31  2  0  0  0  0
 33 32  1  0  0  0  0
 34 35  1  0  0  0  0
 34 32  1  0  0  0  0
 35 37  2  0  0  0  0
 36 35  1  0  0  0  0
 37 31  1  0  0  0  0
 39 38  1  0  0  0  0
 39 40  1  0  0  0  0
M  END
>  <POSE>
4

>  <SCORE>
-10.196

>  <RMSD_LB_BP>
2.340

>  <RMSD_UB_BP>
5.363

$$$$
/content/1PQ6_Docking/DOCKING/CLC-0000194/CLC-0000194_output.pdbqt
 OpenBabel03072503353D

 40 43  0  0  1  0  0  0  0  0999 V2000
   17.2550   -3.1280   59.2760 N   0  0  0  0  0  0  0  0  0  0  0  0
   18.4900   -1.9370   59.8130 S   0  0  0  0  0  0  0  0  0  0  0  0
   17.9440   -0.5350   59.5190 O   0  0  0  0  0  0  0  0  0  0  0  0
   19.6540   -2.0450   58.8160 O   0  0  0  0  0  0  0  0  0  0  0  0
   19.0270   -2.0750   61.5130 C   0  0  0  0  0  0  0  0  0  0  0  0
   20.1720   -2.6970   61.9560 C   0  0  0  0  0  3  0  0  0  0  0  0
   20.1840   -2.6080   63.2960 N   0  0  0  0  0  0  0  0  0  0  0  0
   21.1930   -3.1340   64.2050 C   0  0  0  0  0  1  0  0  0  0  0  0
   19.0660   -1.9380   63.6400 C   0  0  0  0  0  3  0  0  0  0  0  0
   18.3310   -1.5960   62.5630 N   0  0  0  0  0  0  0  0  0  0  0  0
   16.4860   -3.6590   60.4210 C   0  0  0  0  0  2  0  0  0  0  0  0
   15.0050   -3.3870   60.2520 C   0  0  0  0  0  0  0  0  0  0  0  0
   14.0070   -4.3030   60.6630 C   0  0  0  0  0  0  0  0  0  0  0  0
   14.3210   -5.6190   61.3320 C   0  0  0  0  0  1  0  0  0  0  0  0
   12.6520   -3.9950   60.4460 C   0  0  0  0  0  3  0  0  0  0  0  0
   12.2450   -2.7880   59.8270 C   0  0  0  0  0  0  0  0  0  0  0  0
   13.2650   -1.8900   59.4410 C   0  0  0  0  0  3  0  0  0  0  0  0
   14.6110   -2.1850   59.6510 C   0  0  0  0  0  3  0  0  0  0  0  0
   10.7810   -2.4720   59.5860 C   0  0  0  0  0  0  0  0  0  0  0  0
    9.8030   -3.4970   59.5300 C   0  0  0  0  0  3  0  0  0  0  0  0
    8.4550   -3.2030   59.3100 C   0  0  0  0  0  3  0  0  0  0  0  0
    8.0400   -1.8870   59.1380 C   0  0  0  0  0  3  0  0  0  0  0  0
    8.9740   -0.8520   59.1890 C   0  0  0  0  0  0  0  0  0  0  0  0
   10.3270   -1.1400   59.4100 C   0  0  0  0  0  3  0  0  0  0  0  0
    8.4410    0.8470   58.9550 S   0  0  0  0  0  0  0  0  0  0  0  0
    9.1300    1.6910   60.0390 O   0  0  0  0  0  0  0  0  0  0  0  0
    6.9960    0.9460   59.4700 O   0  0  0  0  0  0  0  0  0  0  0  0
    8.5460    1.7510   57.3770 C   0  0  0  0  0  2  0  0  0  0  0  0
    7.2960    2.5890   57.1370 C   0  0  0  0  0  1  0  0  0  0  0  0
   17.7210   -4.1600   58.3100 C   0  0  2  0  0  3  0  0  0  0  0  0
   18.0120   -5.5210   58.9720 C   0  0  0  0  0  0  0  0  0  0  0  0
   17.9020   -6.8450   58.4610 C   0  0  0  0  0  0  0  0  0  0  0  0
   17.5020   -7.3770   57.1160 C   0  0  0  0  0  1  0  0  0  0  0  0
   18.3440   -7.9280   59.6700 S   0  0  0  0  0  0  0  0  0  0  0  0
   18.6650   -6.7890   60.8460 C   0  0  0  0  0  0  0  0  0  0  0  0
   19.1150   -7.0800   62.2380 C   0  0  0  0  0  1  0  0  0  0  0  0
   18.4370   -5.5320   60.3200 C   0  0  0  0  0  3  0  0  0  0  0  0
   18.7740   -3.5370   57.3650 C   0  0  0  0  0  2  0  0  0  0  0  0
   19.2070   -4.4950   56.2410 C   0  0  0  0  0  2  0  0  0  0  0  0
   20.4860   -5.2370   56.6160 C   0  0  0  0  0  1  0  0  0  0  0  0
  1  2  1  0  0  0  0
  1 11  1  0  0  0  0
  2  5  1  0  0  0  0
  3  2  2  0  0  0  0
  4  2  2  0  0  0  0
  5  6  2  0  0  0  0
  5 10  1  0  0  0  0
  6  7  1  0  0  0  0
  7  9  1  0  0  0  0
  7  8  1  0  0  0  0
 10  9  2  0  0  0  0
 12 11  1  0  0  0  0
 12 13  1  0  0  0  0
 13 14  1  0  0  0  0
 15 13  2  0  0  0  0
 16 15  1  0  0  0  0
 17 18  1  0  0  0  0
 17 16  2  0  0  0  0
 18 12  2  0  0  0  0
 19 16  1  0  0  0  0
 20 19  1  0  0  0  0
 21 20  2  0  0  0  0
 22 23  2  0  0  0  0
 22 21  1  0  0  0  0
 23 24  1  0  0  0  0
 24 19  2  0  0  0  0
 25 23  1  0  0  0  0
 25 27  2  0  0  0  0
 25 26  2  0  0  0  0
 28 25  1  0  0  0  0
 29 28  1  0  0  0  0
 30 38  1  1  0  0  0
 30 31  1  0  0  0  0
 30  1  1  0  0  0  0
 31 37  1  0  0  0  0
 32 31  2  0  0  0  0
 32 34  1  0  0  0  0
 33 32  1  0  0  0  0
 34 35  1  0  0  0  0
 35 36  1  0  0  0  0
 37 35  2  0  0  0  0
 39 40  1  0  0  0  0
 39 38  1  0  0  0  0
M  END
>  <POSE>
5

>  <SCORE>
-9.777

>  <RMSD_LB_BP>
2.351

>  <RMSD_UB_BP>
4.505

$$$$
/content/1PQ6_Docking/DOCKING/CLC-0000194/CLC-0000194_output.pdbqt
 OpenBabel03072503353D

 40 43  0  0  1  0  0  0  0  0999 V2000
   17.8570   -4.4710   60.2110 N   0  0  0  0  0  0  0  0  0  0  0  0
   17.9750   -6.2460   60.4610 S   0  0  0  0  0  0  0  0  0  0  0  0
   16.5800   -6.7580   60.8370 O   0  0  0  0  0  0  0  0  0  0  0  0
   18.7540   -6.4460   61.7700 O   0  0  0  0  0  0  0  0  0  0  0  0
   18.6620   -7.1880   59.1040 C   0  0  0  0  0  0  0  0  0  0  0  0
   19.9460   -7.0940   58.6180 C   0  0  0  0  0  3  0  0  0  0  0  0
   20.0430   -7.9400   57.5800 N   0  0  0  0  0  0  0  0  0  0  0  0
   21.2120   -8.1750   56.7420 C   0  0  0  0  0  1  0  0  0  0  0  0
   18.8370   -8.5290   57.4570 C   0  0  0  0  0  3  0  0  0  0  0  0
   17.9630   -8.0850   58.3820 N   0  0  0  0  0  0  0  0  0  0  0  0
   17.1350   -4.1510   58.9620 C   0  0  0  0  0  2  0  0  0  0  0  0
   15.8670   -3.3730   59.2520 C   0  0  0  0  0  0  0  0  0  0  0  0
   14.6580   -3.9980   59.6410 C   0  0  0  0  0  0  0  0  0  0  0  0
   14.5250   -5.4890   59.8310 C   0  0  0  0  0  1  0  0  0  0  0  0
   13.5120   -3.2140   59.8640 C   0  0  0  0  0  3  0  0  0  0  0  0
   13.5250   -1.8050   59.7150 C   0  0  0  0  0  0  0  0  0  0  0  0
   14.7510   -1.2120   59.3390 C   0  0  0  0  0  3  0  0  0  0  0  0
   15.8920   -1.9790   59.1160 C   0  0  0  0  0  3  0  0  0  0  0  0
   12.2800   -0.9690   59.9460 C   0  0  0  0  0  0  0  0  0  0  0  0
   12.3650    0.3770   60.3840 C   0  0  0  0  0  3  0  0  0  0  0  0
   11.2180    1.1450   60.5950 C   0  0  0  0  0  3  0  0  0  0  0  0
    9.9560    0.6010   60.3780 C   0  0  0  0  0  3  0  0  0  0  0  0
    9.8340   -0.7180   59.9450 C   0  0  0  0  0  0  0  0  0  0  0  0
   10.9810   -1.4940   59.7310 C   0  0  0  0  0  3  0  0  0  0  0  0
    8.2060   -1.4260   59.6760 S   0  0  0  0  0  0  0  0  0  0  0  0
    7.3040   -0.3000   59.1480 O   0  0  0  0  0  0  0  0  0  0  0  0
    7.5570   -1.6130   61.0560 O   0  0  0  0  0  0  0  0  0  0  0  0
    7.8830   -2.9230   58.6890 C   0  0  0  0  0  2  0  0  0  0  0  0
    8.8110   -4.0620   59.0950 C   0  0  0  0  0  1  0  0  0  0  0  0
   19.1130   -3.6980   60.4160 C   0  0  2  0  0  3  0  0  0  0  0  0
   19.2260   -3.0910   61.8280 C   0  0  0  0  0  0  0  0  0  0  0  0
   18.2870   -2.3470   62.5970 C   0  0  0  0  0  0  0  0  0  0  0  0
   16.8730   -1.9220   62.3260 C   0  0  0  0  0  1  0  0  0  0  0  0
   18.9970   -1.9370   64.0670 S   0  0  0  0  0  0  0  0  0  0  0  0
   20.4740   -2.6560   63.7780 C   0  0  0  0  0  0  0  0  0  0  0  0
   21.6350   -2.6620   64.7140 C   0  0  0  0  0  1  0  0  0  0  0  0
   20.4470   -3.2370   62.5240 C   0  0  0  0  0  3  0  0  0  0  0  0
   19.3690   -2.8010   59.1840 C   0  0  0  0  0  2  0  0  0  0  0  0
   19.3350   -1.3000   59.5230 C   0  0  0  0  0  2  0  0  0  0  0  0
   18.7660   -0.4890   58.3620 C   0  0  0  0  0  1  0  0  0  0  0  0
  1 30  1  0  0  0  0
  1  2  1  0  0  0  0
  2  3  2  0  0  0  0
  2  4  2  0  0  0  0
  5  2  1  0  0  0  0
  6  5  2  0  0  0  0
  7  6  1  0  0  0  0
  8  7  1  0  0  0  0
  9  7  1  0  0  0  0
  9 10  2  0  0  0  0
 10  5  1  0  0  0  0
 11 12  1  0  0  0  0
 11  1  1  0  0  0  0
 12 13  1  0  0  0  0
 13 14  1  0  0  0  0
 13 15  2  0  0  0  0
 16 15  1  0  0  0  0
 16 19  1  0  0  0  0
 17 16  2  0  0  0  0
 18 12  2  0  0  0  0
 18 17  1  0  0  0  0
 19 20  1  0  0  0  0
 20 21  2  0  0  0  0
 22 21  1  0  0  0  0
 23 22  2  0  0  0  0
 24 23  1  0  0  0  0
 24 19  2  0  0  0  0
 25 23  1  0  0  0  0
 25 27  2  0  0  0  0
 26 25  2  0  0  0  0
 28 29  1  0  0  0  0
 28 25  1  0  0  0  0
 30 38  1  6  0  0  0
 30 31  1  0  0  0  0
 31 37  1  0  0  0  0
 31 32  2  0  0  0  0
 32 34  1  0  0  0  0
 33 32  1  0  0  0  0
 35 34  1  0  0  0  0
 35 36  1  0  0  0  0
 37 35  2  0  0  0  0
 38 39  1  0  0  0  0
 40 39  1  0  0  0  0
M  END
>  <POSE>
6

>  <SCORE>
-9.611

>  <RMSD_LB_BP>
1.222

>  <RMSD_UB_BP>
2.170

$$$$
/content/1PQ6_Docking/DOCKING/CLC-0000194/CLC-0000194_output.pdbqt
 OpenBabel03072503353D

 40 43  0  0  1  0  0  0  0  0999 V2000
   17.6320   -3.6850   59.6940 N   0  0  0  0  0  0  0  0  0  0  0  0
   18.5860   -3.4040   58.1970 S   0  0  0  0  0  0  0  0  0  0  0  0
   19.8970   -2.7210   58.6020 O   0  0  0  0  0  0  0  0  0  0  0  0
   17.8640   -2.2870   57.4290 O   0  0  0  0  0  0  0  0  0  0  0  0
   18.8980   -4.8440   57.1830 C   0  0  0  0  0  0  0  0  0  0  0  0
   20.1000   -5.1870   56.6060 C   0  0  0  0  0  3  0  0  0  0  0  0
   19.8990   -6.3110   55.9000 N   0  0  0  0  0  0  0  0  0  0  0  0
   20.8800   -7.0420   55.1090 C   0  0  0  0  0  1  0  0  0  0  0  0
   18.5990   -6.6310   56.0610 C   0  0  0  0  0  3  0  0  0  0  0  0
   17.9540   -5.7450   56.8460 N   0  0  0  0  0  0  0  0  0  0  0  0
   17.0680   -2.4230   60.2170 C   0  0  0  0  0  2  0  0  0  0  0  0
   15.5580   -2.4110   60.0940 C   0  0  0  0  0  0  0  0  0  0  0  0
   14.7550   -3.5300   60.4200 C   0  0  0  0  0  0  0  0  0  0  0  0
   15.3210   -4.8260   60.9470 C   0  0  0  0  0  1  0  0  0  0  0  0
   13.3610   -3.4550   60.2510 C   0  0  0  0  0  3  0  0  0  0  0  0
   12.7240   -2.2880   59.7630 C   0  0  0  0  0  0  0  0  0  0  0  0
   13.5530   -1.1850   59.4600 C   0  0  0  0  0  3  0  0  0  0  0  0
   14.9360   -1.2480   59.6240 C   0  0  0  0  0  3  0  0  0  0  0  0
   11.2200   -2.2210   59.5730 C   0  0  0  0  0  0  0  0  0  0  0  0
   10.4230   -3.3950   59.5750 C   0  0  0  0  0  3  0  0  0  0  0  0
    9.0390   -3.3310   59.4010 C   0  0  0  0  0  3  0  0  0  0  0  0
    8.4070   -2.1050   59.2190 C   0  0  0  0  0  3  0  0  0  0  0  0
    9.1590   -0.9310   59.2130 C   0  0  0  0  0  0  0  0  0  0  0  0
   10.5470   -0.9870   59.3870 C   0  0  0  0  0  3  0  0  0  0  0  0
    8.3460    0.6520   58.9660 S   0  0  0  0  0  0  0  0  0  0  0  0
    8.8880    1.6110   60.0370 O   0  0  0  0  0  0  0  0  0  0  0  0
    6.9080    0.5120   59.4890 O   0  0  0  0  0  0  0  0  0  0  0  0
    8.2890    1.5440   57.3790 C   0  0  0  0  0  2  0  0  0  0  0  0
    7.2120    2.6210   57.3890 C   0  0  0  0  0  1  0  0  0  0  0  0
   18.2720   -4.5520   60.7220 C   0  0  2  0  0  3  0  0  0  0  0  0
   18.9800   -3.7510   61.8320 C   0  0  0  0  0  0  0  0  0  0  0  0
   18.4670   -2.8140   62.7720 C   0  0  0  0  0  0  0  0  0  0  0  0
   17.0790   -2.3030   63.0330 C   0  0  0  0  0  1  0  0  0  0  0  0
   19.7360   -2.2540   63.7250 S   0  0  0  0  0  0  0  0  0  0  0  0
   20.9390   -3.1450   62.9900 C   0  0  0  0  0  0  0  0  0  0  0  0
   22.3860   -3.1180   63.3530 C   0  0  0  0  0  1  0  0  0  0  0  0
   20.3760   -3.9050   61.9810 C   0  0  0  0  0  3  0  0  0  0  0  0
   19.0260   -5.7040   60.0210 C   0  0  0  0  0  2  0  0  0  0  0  0
   18.5780   -7.0930   60.5080 C   0  0  0  0  0  2  0  0  0  0  0  0
   19.2130   -8.1990   59.6700 C   0  0  0  0  0  1  0  0  0  0  0  0
  1 11  1  0  0  0  0
  1 30  1  0  0  0  0
  2  3  2  0  0  0  0
  2  1  1  0  0  0  0
  4  2  2  0  0  0  0
  5  2  1  0  0  0  0
  6  5  2  0  0  0  0
  7  9  1  0  0  0  0
  7  6  1  0  0  0  0
  8  7  1  0  0  0  0
  9 10  2  0  0  0  0
 10  5  1  0  0  0  0
 12 11  1  0  0  0  0
 12 13  1  0  0  0  0
 13 14  1  0  0  0  0
 15 13  2  0  0  0  0
 16 15  1  0  0  0  0
 17 18  1  0  0  0  0
 17 16  2  0  0  0  0
 18 12  2  0  0  0  0
 19 20  1  0  0  0  0
 19 16  1  0  0  0  0
 21 20  2  0  0  0  0
 22 21  1  0  0  0  0
 23 22  2  0  0  0  0
 23 24  1  0  0  0  0
 24 19  2  0  0  0  0
 25 23  1  0  0  0  0
 25 27  2  0  0  0  0
 25 26  2  0  0  0  0
 28 29  1  0  0  0  0
 28 25  1  0  0  0  0
 30 38  1  6  0  0  0
 30 31  1  0  0  0  0
 31 37  1  0  0  0  0
 31 32  2  0  0  0  0
 32 33  1  0  0  0  0
 32 34  1  0  0  0  0
 35 36  1  0  0  0  0
 35 34  1  0  0  0  0
 37 35  2  0  0  0  0
 38 39  1  0  0  0  0
 40 39  1  0  0  0  0
M  END
>  <POSE>
7

>  <SCORE>
-9.357

>  <RMSD_LB_BP>
1.996

>  <RMSD_UB_BP>
2.738

$$$$
/content/1PQ6_Docking/DOCKING/CLC-0000194/CLC-0000194_output.pdbqt
 OpenBabel03072503353D

 40 43  0  0  1  0  0  0  0  0999 V2000
   17.8680   -4.3280   60.2050 N   0  0  0  0  0  0  0  0  0  0  0  0
   18.6810   -2.7530   60.5050 S   0  0  0  0  0  0  0  0  0  0  0  0
   17.7550   -1.6450   59.9920 O   0  0  0  0  0  0  0  0  0  0  0  0
   19.8530   -2.6780   59.5150 O   0  0  0  0  0  0  0  0  0  0  0  0
   19.1860   -2.4390   62.1910 C   0  0  0  0  0  0  0  0  0  0  0  0
   20.3890   -2.7940   62.7600 C   0  0  0  0  0  3  0  0  0  0  0  0
   20.3540   -2.4080   64.0450 N   0  0  0  0  0  0  0  0  0  0  0  0
   21.3980   -2.5840   65.0460 C   0  0  0  0  0  1  0  0  0  0  0  0
   19.1520   -1.8300   64.2340 C   0  0  0  0  0  3  0  0  0  0  0  0
   18.4070   -1.8340   63.1100 N   0  0  0  0  0  0  0  0  0  0  0  0
   16.9440   -4.6750   61.3040 C   0  0  0  0  0  2  0  0  0  0  0  0
   15.5320   -4.2240   60.9890 C   0  0  0  0  0  0  0  0  0  0  0  0
   14.3940   -5.0140   61.2810 C   0  0  0  0  0  0  0  0  0  0  0  0
   14.4760   -6.3600   61.9570 C   0  0  0  0  0  1  0  0  0  0  0  0
   13.1160   -4.5430   60.9310 C   0  0  0  0  0  3  0  0  0  0  0  0
   12.9230   -3.2930   60.2930 C   0  0  0  0  0  0  0  0  0  0  0  0
   14.0790   -2.5250   60.0280 C   0  0  0  0  0  3  0  0  0  0  0  0
   15.3500   -2.9810   60.3710 C   0  0  0  0  0  3  0  0  0  0  0  0
   11.5410   -2.8000   59.9090 C   0  0  0  0  0  0  0  0  0  0  0  0
   10.4310   -3.6820   59.8550 C   0  0  0  0  0  3  0  0  0  0  0  0
    9.1590   -3.2250   59.5020 C   0  0  0  0  0  3  0  0  0  0  0  0
    8.9520   -1.8850   59.1920 C   0  0  0  0  0  3  0  0  0  0  0  0
   10.0200   -0.9890   59.2360 C   0  0  0  0  0  0  0  0  0  0  0  0
   11.2980   -1.4400   59.5900 C   0  0  0  0  0  3  0  0  0  0  0  0
    9.7570    0.7390   58.8250 S   0  0  0  0  0  0  0  0  0  0  0  0
   11.0230    1.2310   58.1070 O   0  0  0  0  0  0  0  0  0  0  0  0
    9.9030    1.5440   60.1260 O   0  0  0  0  0  0  0  0  0  0  0  0
    8.3070    1.3740   57.9230 C   0  0  0  0  0  2  0  0  0  0  0  0
    8.7270    2.1430   56.6760 C   0  0  0  0  0  1  0  0  0  0  0  0
   18.7500   -5.4420   59.7600 C   0  0  2  0  0  3  0  0  0  0  0  0
   19.1480   -5.3420   58.2750 C   0  0  0  0  0  0  0  0  0  0  0  0
   18.4790   -4.7400   57.1720 C   0  0  0  0  0  0  0  0  0  0  0  0
   17.1900   -3.9790   57.0690 C   0  0  0  0  0  1  0  0  0  0  0  0
   19.4050   -4.9740   55.7860 S   0  0  0  0  0  0  0  0  0  0  0  0
   20.6360   -5.8290   56.5160 C   0  0  0  0  0  0  0  0  0  0  0  0
   21.8390   -6.3810   55.8250 C   0  0  0  0  0  1  0  0  0  0  0  0
   20.3550   -5.9520   57.8640 C   0  0  0  0  0  3  0  0  0  0  0  0
   18.2000   -6.7780   60.3080 C   0  0  0  0  0  2  0  0  0  0  0  0
   19.2430   -7.9100   60.2770 C   0  0  0  0  0  2  0  0  0  0  0  0
   18.8660   -8.9740   59.2500 C   0  0  0  0  0  1  0  0  0  0  0  0
  1  2  1  0  0  0  0
  1 11  1  0  0  0  0
  2  5  1  0  0  0  0
  3  2  2  0  0  0  0
  4  2  2  0  0  0  0
  5  6  2  0  0  0  0
  5 10  1  0  0  0  0
  6  7  1  0  0  0  0
  7  9  1  0  0  0  0
  7  8  1  0  0  0  0
 10  9  2  0  0  0  0
 12 13  1  0  0  0  0
 12 11  1  0  0  0  0
 13 14  1  0  0  0  0
 15 13  2  0  0  0  0
 16 15  1  0  0  0  0
 17 16  2  0  0  0  0
 17 18  1  0  0  0  0
 18 12  2  0  0  0  0
 19 16  1  0  0  0  0
 20 19  1  0  0  0  0
 21 20  2  0  0  0  0
 22 23  2  0  0  0  0
 22 21  1  0  0  0  0
 23 24  1  0  0  0  0
 24 19  2  0  0  0  0
 25 23  1  0  0  0  0
 25 27  2  0  0  0  0
 26 25  2  0  0  0  0
 28 25  1  0  0  0  0
 29 28  1  0  0  0  0
 30  1  1  0  0  0  0
 30 38  1  6  0  0  0
 31 30  1  0  0  0  0
 32 31  2  0  0  0  0
 33 32  1  0  0  0  0
 34 35  1  0  0  0  0
 34 32  1  0  0  0  0
 35 37  2  0  0  0  0
 36 35  1  0  0  0  0
 37 31  1  0  0  0  0
 39 38  1  0  0  0  0
 40 39  1  0  0  0  0
M  END
>  <POSE>
8

>  <SCORE>
-9.297

>  <RMSD_LB_BP>
2.269

>  <RMSD_UB_BP>
5.114

$$$$
/content/1PQ6_Docking/DOCKING/CLC-0000194/CLC-0000194_output.pdbqt
 OpenBabel03072503353D

 40 43  0  0  1  0  0  0  0  0999 V2000
   18.1100   -4.2960   59.4950 N   0  0  0  0  0  0  0  0  0  0  0  0
   18.6150   -3.8500   57.8290 S   0  0  0  0  0  0  0  0  0  0  0  0
   19.1650   -2.4190   57.8750 O   0  0  0  0  0  0  0  0  0  0  0  0
   17.3210   -3.6700   57.0200 O   0  0  0  0  0  0  0  0  0  0  0  0
   19.7720   -4.9580   57.0340 C   0  0  0  0  0  0  0  0  0  0  0  0
   19.6430   -5.5030   55.7770 C   0  0  0  0  0  3  0  0  0  0  0  0
   20.7030   -6.3020   55.5760 N   0  0  0  0  0  0  0  0  0  0  0  0
   20.9920   -7.1020   54.3930 C   0  0  0  0  0  1  0  0  0  0  0  0
   21.4500   -6.2280   56.6960 C   0  0  0  0  0  3  0  0  0  0  0  0
   20.9020   -5.4070   57.6140 N   0  0  0  0  0  0  0  0  0  0  0  0
   17.6360   -3.1160   60.2470 C   0  0  0  0  0  2  0  0  0  0  0  0
   16.1240   -3.0190   60.2060 C   0  0  0  0  0  0  0  0  0  0  0  0
   15.2780   -4.0470   60.6840 C   0  0  0  0  0  0  0  0  0  0  0  0
   15.7970   -5.3210   61.3050 C   0  0  0  0  0  1  0  0  0  0  0  0
   13.8820   -3.8990   60.5850 C   0  0  0  0  0  3  0  0  0  0  0  0
   13.2870   -2.7450   60.0190 C   0  0  0  0  0  0  0  0  0  0  0  0
   14.1600   -1.7320   59.5630 C   0  0  0  0  0  3  0  0  0  0  0  0
   15.5440   -1.8680   59.6570 C   0  0  0  0  0  3  0  0  0  0  0  0
   11.7810   -2.6000   59.9050 C   0  0  0  0  0  0  0  0  0  0  0  0
   10.9180   -3.7150   60.0590 C   0  0  0  0  0  3  0  0  0  0  0  0
    9.5320   -3.5800   59.9560 C   0  0  0  0  0  3  0  0  0  0  0  0
    8.9630   -2.3370   59.6950 C   0  0  0  0  0  3  0  0  0  0  0  0
    9.7810   -1.2180   59.5390 C   0  0  0  0  0  0  0  0  0  0  0  0
   11.1720   -1.3470   59.6420 C   0  0  0  0  0  3  0  0  0  0  0  0
    9.0490    0.3840   59.1900 S   0  0  0  0  0  0  0  0  0  0  0  0
    9.7380    1.4060   60.1070 O   0  0  0  0  0  0  0  0  0  0  0  0
    7.6550    0.3980   59.8360 O   0  0  0  0  0  0  0  0  0  0  0  0
    8.9120    1.1140   57.5260 C   0  0  0  0  0  2  0  0  0  0  0  0
    7.9290    2.2780   57.5140 C   0  0  0  0  0  1  0  0  0  0  0  0
   19.0490   -5.1750   60.2460 C   0  0  2  0  0  3  0  0  0  0  0  0
   18.8350   -6.6740   59.9590 C   0  0  0  0  0  0  0  0  0  0  0  0
   18.0070   -7.3270   59.0030 C   0  0  0  0  0  0  0  0  0  0  0  0
   17.0890   -6.8020   57.9380 C   0  0  0  0  0  1  0  0  0  0  0  0
   18.1850   -8.9910   59.1820 S   0  0  0  0  0  0  0  0  0  0  0  0
   19.2720   -8.9360   60.4460 C   0  0  0  0  0  0  0  0  0  0  0  0
   19.8660  -10.1190   61.1330 C   0  0  0  0  0  1  0  0  0  0  0  0
   19.5250   -7.6130   60.7570 C   0  0  0  0  0  3  0  0  0  0  0  0
   19.1400   -4.6900   61.7110 C   0  0  0  0  0  2  0  0  0  0  0  0
   20.2780   -3.6790   61.9340 C   0  0  0  0  0  2  0  0  0  0  0  0
   20.2260   -3.0990   63.3450 C   0  0  0  0  0  1  0  0  0  0  0  0
  1 30  1  0  0  0  0
  1 11  1  0  0  0  0
  2  3  2  0  0  0  0
  2  1  1  0  0  0  0
  4  2  2  0  0  0  0
  5 10  1  0  0  0  0
  5  2  1  0  0  0  0
  6  5  2  0  0  0  0
  7  6  1  0  0  0  0
  7  9  1  0  0  0  0
  8  7  1  0  0  0  0
  9 10  2  0  0  0  0
 12 11  1  0  0  0  0
 12 13  1  0  0  0  0
 13 14  1  0  0  0  0
 15 13  2  0  0  0  0
 16 15  1  0  0  0  0
 17 18  1  0  0  0  0
 17 16  2  0  0  0  0
 18 12  2  0  0  0  0
 19 16  1  0  0  0  0
 19 20  1  0  0  0  0
 21 20  2  0  0  0  0
 22 21  1  0  0  0  0
 23 24  1  0  0  0  0
 23 22  2  0  0  0  0
 24 19  2  0  0  0  0
 25 23  1  0  0  0  0
 25 27  2  0  0  0  0
 25 26  2  0  0  0  0
 28 25  1  0  0  0  0
 29 28  1  0  0  0  0
 30 38  1  1  0  0  0
 31 30  1  0  0  0  0
 31 37  1  0  0  0  0
 32 34  1  0  0  0  0
 32 31  2  0  0  0  0
 33 32  1  0  0  0  0
 34 35  1  0  0  0  0
 35 37  2  0  0  0  0
 35 36  1  0  0  0  0
 38 39  1  0  0  0  0
 39 40  1  0  0  0  0
M  END
>  <POSE>
9

>  <SCORE>
-8.983

>  <RMSD_LB_BP>
2.259

>  <RMSD_UB_BP>
3.831

$$$$
