/content/4EXS_VS/DOCKING/CLC-0000191/CLC-0000191_output.pdbqt
 OpenBabel03062504413D

 41 44  0  0  1  0  0  0  0  0999 V2000
   54.6190   17.5980   -3.8620 N   0  0  0  0  0  0  0  0  0  0  0  0
   55.1940   19.1940   -3.2640 S   0  0  0  0  0  0  0  0  0  0  0  0
   55.4550   19.9920   -4.5510 O   0  0  0  0  0  0  0  0  0  0  0  0
   56.6360   19.0230   -2.7690 O   0  0  0  0  0  0  0  0  0  0  0  0
   54.1800   20.1840   -2.1660 C   0  0  0  0  0  0  0  0  0  0  0  0
   53.6490   19.7580   -0.9700 C   0  0  0  0  0  3  0  0  0  0  0  0
   52.9700   20.7890   -0.4430 N   0  0  0  0  0  0  0  0  0  0  0  0
   52.2470   20.7930    0.8210 C   0  0  0  0  0  1  0  0  0  0  0  0
   53.0950   21.8100   -1.3130 C   0  0  0  0  0  3  0  0  0  0  0  0
   53.8400   21.4690   -2.3850 N   0  0  0  0  0  0  0  0  0  0  0  0
   54.0070   16.8140   -2.7640 C   0  0  0  0  0  2  0  0  0  0  0  0
   52.5410   16.5350   -3.0290 C   0  0  0  0  0  0  0  0  0  0  0  0
   51.8960   15.3370   -2.6430 C   0  0  0  0  0  0  0  0  0  0  0  0
   52.6370   14.2250   -1.9450 C   0  0  0  0  0  1  0  0  0  0  0  0
   50.5280   15.1630   -2.9250 C   0  0  0  0  0  3  0  0  0  0  0  0
   49.7660   16.1530   -3.5930 C   0  0  0  0  0  0  0  0  0  0  0  0
   50.4450   17.3320   -3.9750 C   0  0  0  0  0  3  0  0  0  0  0  0
   51.7990   17.5130   -3.7010 C   0  0  0  0  0  3  0  0  0  0  0  0
   48.2860   15.9580   -3.8860 C   0  0  0  0  0  0  0  0  0  0  0  0
   47.7930   14.7460   -4.4360 C   0  0  0  0  0  3  0  0  0  0  0  0
   46.4340   14.5720   -4.7080 C   0  0  0  0  0  3  0  0  0  0  0  0
   45.5260   15.5910   -4.4430 C   0  0  0  0  0  3  0  0  0  0  0  0
   45.9720   16.7940   -3.8990 C   0  0  0  0  0  0  0  0  0  0  0  0
   47.3340   16.9770   -3.6260 C   0  0  0  0  0  3  0  0  0  0  0  0
   44.8040   18.1170   -3.5620 S   0  0  0  0  0  0  0  0  0  0  0  0
   45.0340   19.2020   -4.6260 O   0  0  0  0  0  0  0  0  0  0  0  0
   45.3230   18.8840   -2.3350 O   0  0  0  0  0  0  0  0  0  0  0  0
   43.0070   17.8850   -3.3670 C   0  0  0  0  0  2  0  0  0  0  0  0
   42.4090   17.1790   -4.5770 C   0  0  0  0  0  1  0  0  0  0  0  0
   55.5690   16.7790   -4.6730 C   0  0  2  0  0  3  0  0  0  0  0  0
   55.4920   17.0510   -6.1730 C   0  0  0  0  0  0  0  0  0  0  0  0
   56.6040   17.0650   -7.0310 C   0  0  0  0  0  0  0  0  0  0  0  0
   58.0390   16.8600   -6.6620 C   0  0  0  0  0  1  0  0  0  0  0  0
   56.0880   17.3840   -8.6010 S   0  0  0  0  0  0  0  0  0  0  0  0
   54.4580   17.4960   -8.2260 C   0  0  0  0  0  0  0  0  0  0  0  0
   53.3640   17.7770   -9.2000 C   0  0  0  0  0  1  0  0  0  0  0  0
   54.2870   17.2890   -6.8650 C   0  0  0  0  0  3  0  0  0  0  0  0
   55.4460   15.2700   -4.3370 C   0  0  0  0  0  3  0  0  0  0  0  0
   56.5970   14.6950   -3.4820 C   0  0  0  0  0  3  0  0  0  0  0  0
   56.2900   13.3740   -2.7520 C   0  0  0  0  0  2  0  0  0  0  0  0
   56.7470   13.3710   -1.2940 C   0  0  0  0  0  1  0  0  0  0  0  0
  1  2  1  0  0  0  0
  1 11  1  0  0  0  0
  2  4  2  0  0  0  0
  2  5  1  0  0  0  0
  3  2  2  0  0  0  0
  5  6  2  0  0  0  0
  6  7  1  0  0  0  0
  7  8  1  0  0  0  0
  9  7  1  0  0  0  0
 10  5  1  0  0  0  0
 10  9  2  0  0  0  0
 12 11  1  0  0  0  0
 12 13  1  0  0  0  0
 13 14  1  0  0  0  0
 15 13  2  0  0  0  0
 16 15  1  0  0  0  0
 17 18  1  0  0  0  0
 17 16  2  0  0  0  0
 18 12  2  0  0  0  0
 19 24  1  0  0  0  0
 19 16  1  0  0  0  0
 20 19  2  0  0  0  0
 21 22  2  0  0  0  0
 21 20  1  0  0  0  0
 22 23  1  0  0  0  0
 23 24  2  0  0  0  0
 23 25  1  0  0  0  0
 25 28  1  0  0  0  0
 25 27  2  0  0  0  0
 26 25  2  0  0  0  0
 29 28  1  0  0  0  0
 30 38  1  6  0  0  0
 30  1  1  0  0  0  0
 31 30  1  0  0  0  0
 32 33  1  0  0  0  0
 32 31  2  0  0  0  0
 34 35  1  0  0  0  0
 34 32  1  0  0  0  0
 35 37  2  0  0  0  0
 36 35  1  0  0  0  0
 37 31  1  0  0  0  0
 38 39  2  0  0  0  0
 39 40  1  0  0  0  0
 40 41  1  0  0  0  0
M  END
>  <POSE>
1

>  <SCORE>
-7.400

>  <RMSD_LB_BP>
0.000

>  <RMSD_UB_BP>
0.000

$$$$
/content/4EXS_VS/DOCKING/CLC-0000191/CLC-0000191_output.pdbqt
 OpenBabel03062504413D

 41 44  0  0  1  0  0  0  0  0999 V2000
   55.4420   16.5290   -4.0280 N   0  0  0  0  0  0  0  0  0  0  0  0
   56.2330   16.4710   -5.6420 S   0  0  0  0  0  0  0  0  0  0  0  0
   56.1790   14.9830   -6.0200 O   0  0  0  0  0  0  0  0  0  0  0  0
   57.7450   16.6300   -5.4340 O   0  0  0  0  0  0  0  0  0  0  0  0
   55.6000   17.4390   -7.0110 C   0  0  0  0  0  0  0  0  0  0  0  0
   55.7150   18.8040   -7.1440 C   0  0  0  0  0  3  0  0  0  0  0  0
   55.1310   19.1440   -8.3030 N   0  0  0  0  0  0  0  0  0  0  0  0
   55.0200   20.4890   -8.8530 C   0  0  0  0  0  1  0  0  0  0  0  0
   54.6770   18.0010   -8.8500 C   0  0  0  0  0  3  0  0  0  0  0  0
   54.9540   16.9300   -8.0780 N   0  0  0  0  0  0  0  0  0  0  0  0
   54.6170   17.7520   -3.8890 C   0  0  0  0  0  2  0  0  0  0  0  0
   53.1370   17.4240   -3.8600 C   0  0  0  0  0  0  0  0  0  0  0  0
   52.2400   17.9670   -2.9110 C   0  0  0  0  0  0  0  0  0  0  0  0
   52.7030   18.9120   -1.8310 C   0  0  0  0  0  1  0  0  0  0  0  0
   50.8790   17.6120   -2.9600 C   0  0  0  0  0  3  0  0  0  0  0  0
   50.3690   16.7180   -3.9330 C   0  0  0  0  0  0  0  0  0  0  0  0
   51.2950   16.1850   -4.8580 C   0  0  0  0  0  3  0  0  0  0  0  0
   52.6450   16.5300   -4.8170 C   0  0  0  0  0  3  0  0  0  0  0  0
   48.8950   16.3480   -3.9810 C   0  0  0  0  0  0  0  0  0  0  0  0
   48.4730   15.0150   -4.2230 C   0  0  0  0  0  3  0  0  0  0  0  0
   47.1180   14.6780   -4.2720 C   0  0  0  0  0  3  0  0  0  0  0  0
   46.1440   15.6520   -4.0810 C   0  0  0  0  0  3  0  0  0  0  0  0
   46.5190   16.9720   -3.8380 C   0  0  0  0  0  0  0  0  0  0  0  0
   47.8760   17.3160   -3.7910 C   0  0  0  0  0  3  0  0  0  0  0  0
   45.2640   18.2350   -3.5990 S   0  0  0  0  0  0  0  0  0  0  0  0
   45.6290   19.4120   -4.5170 O   0  0  0  0  0  0  0  0  0  0  0  0
   45.5410   18.9060   -2.2440 O   0  0  0  0  0  0  0  0  0  0  0  0
   43.4690   17.9470   -3.7330 C   0  0  0  0  0  2  0  0  0  0  0  0
   43.0450   16.7280   -2.9240 C   0  0  0  0  0  1  0  0  0  0  0  0
   56.2990   16.2930   -2.8270 C   0  0  2  0  0  3  0  0  0  0  0  0
   56.1830   14.8820   -2.2550 C   0  0  0  0  0  0  0  0  0  0  0  0
   57.2620   14.1520   -1.7300 C   0  0  0  0  0  0  0  0  0  0  0  0
   58.6960   14.5740   -1.6580 C   0  0  0  0  0  1  0  0  0  0  0  0
   56.7090   12.6580   -1.1900 S   0  0  0  0  0  0  0  0  0  0  0  0
   55.1020   12.9130   -1.5970 C   0  0  0  0  0  0  0  0  0  0  0  0
   53.9920   11.9410   -1.3830 C   0  0  0  0  0  1  0  0  0  0  0  0
   54.9700   14.1710   -2.1650 C   0  0  0  0  0  3  0  0  0  0  0  0
   56.0820   17.3890   -1.7520 C   0  0  0  0  0  2  0  0  0  0  0  0
   57.3640   18.1190   -1.2960 C   0  0  0  0  0  2  0  0  0  0  0  0
   58.3590   18.4800   -2.4130 C   0  0  0  0  0  2  0  0  0  0  0  0
   57.8700   19.6150   -3.3130 C   0  0  0  0  0  1  0  0  0  0  0  0
  1 11  1  0  0  0  0
  1 30  1  0  0  0  0
  2  4  2  0  0  0  0
  2  1  1  0  0  0  0
  3  2  2  0  0  0  0
  5  2  1  0  0  0  0
  6  5  2  0  0  0  0
  7  6  1  0  0  0  0
  8  7  1  0  0  0  0
  9  7  1  0  0  0  0
  9 10  2  0  0  0  0
 10  5  1  0  0  0  0
 11 12  1  0  0  0  0
 12 13  1  0  0  0  0
 13 14  1  0  0  0  0
 15 13  2  0  0  0  0
 16 15  1  0  0  0  0
 17 18  1  0  0  0  0
 17 16  2  0  0  0  0
 18 12  2  0  0  0  0
 19 16  1  0  0  0  0
 19 24  1  0  0  0  0
 20 19  2  0  0  0  0
 21 20  1  0  0  0  0
 21 22  2  0  0  0  0
 22 23  1  0  0  0  0
 23 24  2  0  0  0  0
 23 25  1  0  0  0  0
 25 27  2  0  0  0  0
 26 25  2  0  0  0  0
 28 25  1  0  0  0  0
 28 29  1  0  0  0  0
 30 31  1  0  0  0  0
 30 38  1  1  0  0  0
 31 37  1  0  0  0  0
 31 32  2  0  0  0  0
 32 33  1  0  0  0  0
 32 34  1  0  0  0  0
 35 36  1  0  0  0  0
 35 34  1  0  0  0  0
 37 35  2  0  0  0  0
 38 39  1  0  0  0  0
 40 39  1  0  0  0  0
 41 40  1  0  0  0  0
M  END
>  <POSE>
2

>  <SCORE>
-7.255

>  <RMSD_LB_BP>
2.490

>  <RMSD_UB_BP>
4.821

$$$$
/content/4EXS_VS/DOCKING/CLC-0000191/CLC-0000191_output.pdbqt
 OpenBabel03062504413D

 41 44  0  0  1  0  0  0  0  0999 V2000
   54.9480   17.5000   -2.8940 N   0  0  0  0  0  0  0  0  0  0  0  0
   55.9760   16.3860   -1.9270 S   0  0  0  0  0  0  0  0  0  0  0  0
   55.6040   16.7160   -0.4740 O   0  0  0  0  0  0  0  0  0  0  0  0
   57.4130   16.9230   -1.9550 O   0  0  0  0  0  0  0  0  0  0  0  0
   55.8790   14.6110   -2.1590 C   0  0  0  0  0  0  0  0  0  0  0  0
   54.7980   13.8220   -1.8350 C   0  0  0  0  0  3  0  0  0  0  0  0
   55.1070   12.5610   -2.1730 N   0  0  0  0  0  0  0  0  0  0  0  0
   54.2560   11.3890   -2.0120 C   0  0  0  0  0  1  0  0  0  0  0  0
   56.3510   12.5990   -2.6880 C   0  0  0  0  0  3  0  0  0  0  0  0
   56.8530   13.8510   -2.6970 N   0  0  0  0  0  0  0  0  0  0  0  0
   54.5400   16.8670   -4.1700 C   0  0  0  0  0  2  0  0  0  0  0  0
   53.0390   16.6600   -4.2340 C   0  0  0  0  0  0  0  0  0  0  0  0
   52.3040   16.6780   -5.4420 C   0  0  0  0  0  0  0  0  0  0  0  0
   52.9670   16.9260   -6.7720 C   0  0  0  0  0  1  0  0  0  0  0  0
   50.9120   16.4720   -5.4090 C   0  0  0  0  0  3  0  0  0  0  0  0
   50.2120   16.2500   -4.1980 C   0  0  0  0  0  0  0  0  0  0  0  0
   50.9760   16.2510   -3.0100 C   0  0  0  0  0  3  0  0  0  0  0  0
   52.3540   16.4540   -3.0310 C   0  0  0  0  0  3  0  0  0  0  0  0
   48.7090   16.0210   -4.1760 C   0  0  0  0  0  0  0  0  0  0  0  0
   48.1520   14.7320   -4.3820 C   0  0  0  0  0  3  0  0  0  0  0  0
   46.7700   14.5260   -4.3650 C   0  0  0  0  0  3  0  0  0  0  0  0
   45.9020   15.5900   -4.1450 C   0  0  0  0  0  3  0  0  0  0  0  0
   46.4110   16.8700   -3.9360 C   0  0  0  0  0  0  0  0  0  0  0  0
   47.7950   17.0840   -3.9540 C   0  0  0  0  0  3  0  0  0  0  0  0
   45.2940   18.2490   -3.6590 S   0  0  0  0  0  0  0  0  0  0  0  0
   45.7600   19.3970   -4.5700 O   0  0  0  0  0  0  0  0  0  0  0  0
   45.6600   18.8700   -2.3010 O   0  0  0  0  0  0  0  0  0  0  0  0
   43.4770   18.1450   -3.7640 C   0  0  0  0  0  2  0  0  0  0  0  0
   42.9580   16.8860   -3.0830 C   0  0  0  0  0  1  0  0  0  0  0  0
   55.4380   18.8970   -3.0940 C   0  0  2  0  0  3  0  0  0  0  0  0
   54.5960   19.9540   -2.3850 C   0  0  0  0  0  0  0  0  0  0  0  0
   54.4150   21.2650   -2.8540 C   0  0  0  0  0  0  0  0  0  0  0  0
   55.0150   21.8840   -4.0770 C   0  0  0  0  0  1  0  0  0  0  0  0
   53.4070   22.0980   -1.7940 S   0  0  0  0  0  0  0  0  0  0  0  0
   53.1730   20.8170   -0.7380 C   0  0  0  0  0  0  0  0  0  0  0  0
   52.3380   20.8560    0.4970 C   0  0  0  0  0  1  0  0  0  0  0  0
   53.8820   19.7150   -1.1930 C   0  0  0  0  0  3  0  0  0  0  0  0
   55.6450   19.2140   -4.5980 C   0  0  0  0  0  2  0  0  0  0  0  0
   57.0550   18.8990   -5.1440 C   0  0  0  0  0  2  0  0  0  0  0  0
   58.2300   19.3890   -4.2790 C   0  0  0  0  0  2  0  0  0  0  0  0
   58.4170   20.9060   -4.3190 C   0  0  0  0  0  1  0  0  0  0  0  0
  1  2  1  0  0  0  0
  2  3  2  0  0  0  0
  4  2  2  0  0  0  0
  5  2  1  0  0  0  0
  5  6  2  0  0  0  0
  7  8  1  0  0  0  0
  7  6  1  0  0  0  0
  9  7  1  0  0  0  0
 10  9  2  0  0  0  0
 10  5  1  0  0  0  0
 11  1  1  0  0  0  0
 12 11  1  0  0  0  0
 12 18  1  0  0  0  0
 13 15  1  0  0  0  0
 13 12  2  0  0  0  0
 14 13  1  0  0  0  0
 15 16  2  0  0  0  0
 16 19  1  0  0  0  0
 16 17  1  0  0  0  0
 18 17  2  0  0  0  0
 19 24  1  0  0  0  0
 20 21  1  0  0  0  0
 20 19  2  0  0  0  0
 21 22  2  0  0  0  0
 22 23  1  0  0  0  0
 23 25  1  0  0  0  0
 24 23  2  0  0  0  0
 25 27  2  0  0  0  0
 26 25  2  0  0  0  0
 28 25  1  0  0  0  0
 28 29  1  0  0  0  0
 30 38  1  6  0  0  0
 30  1  1  0  0  0  0
 30 31  1  0  0  0  0
 31 37  1  0  0  0  0
 32 31  2  0  0  0  0
 32 34  1  0  0  0  0
 33 32  1  0  0  0  0
 34 35  1  0  0  0  0
 35 36  1  0  0  0  0
 37 35  2  0  0  0  0
 39 38  1  0  0  0  0
 39 40  1  0  0  0  0
 41 40  1  0  0  0  0
M  END
>  <POSE>
3

>  <SCORE>
-7.147

>  <RMSD_LB_BP>
2.127

>  <RMSD_UB_BP>
5.096

$$$$
/content/4EXS_VS/DOCKING/CLC-0000191/CLC-0000191_output.pdbqt
 OpenBabel03062504413D

 41 44  0  0  1  0  0  0  0  0999 V2000
   55.1190   17.1570   -3.7260 N   0  0  0  0  0  0  0  0  0  0  0  0
   55.6640   18.0510   -5.1880 S   0  0  0  0  0  0  0  0  0  0  0  0
   55.2510   19.5030   -4.9020 O   0  0  0  0  0  0  0  0  0  0  0  0
   54.6940   17.7260   -6.3310 O   0  0  0  0  0  0  0  0  0  0  0  0
   57.3840   18.0290   -5.6910 C   0  0  0  0  0  0  0  0  0  0  0  0
   58.2690   19.0740   -5.5550 C   0  0  0  0  0  3  0  0  0  0  0  0
   59.4540   18.6620   -6.0320 N   0  0  0  0  0  0  0  0  0  0  0  0
   60.6840   19.4410   -6.0850 C   0  0  0  0  0  1  0  0  0  0  0  0
   59.2760   17.3930   -6.4460 C   0  0  0  0  0  3  0  0  0  0  0  0
   58.0100   16.9710   -6.2450 N   0  0  0  0  0  0  0  0  0  0  0  0
   54.2340   18.0020   -2.8920 C   0  0  0  0  0  2  0  0  0  0  0  0
   52.7730   17.6470   -3.0930 C   0  0  0  0  0  0  0  0  0  0  0  0
   51.7080   18.4120   -2.5650 C   0  0  0  0  0  0  0  0  0  0  0  0
   51.9520   19.6460   -1.7330 C   0  0  0  0  0  1  0  0  0  0  0  0
   50.3800   18.0110   -2.8050 C   0  0  0  0  0  3  0  0  0  0  0  0
   50.0680   16.8560   -3.5610 C   0  0  0  0  0  0  0  0  0  0  0  0
   51.1570   16.1080   -4.0640 C   0  0  0  0  0  3  0  0  0  0  0  0
   52.4750   16.4960   -3.8310 C   0  0  0  0  0  3  0  0  0  0  0  0
   48.6300   16.4370   -3.8210 C   0  0  0  0  0  0  0  0  0  0  0  0
   48.3030   15.1150   -4.2230 C   0  0  0  0  0  3  0  0  0  0  0  0
   46.9810   14.7340   -4.4650 C   0  0  0  0  0  3  0  0  0  0  0  0
   45.9460   15.6510   -4.3160 C   0  0  0  0  0  3  0  0  0  0  0  0
   46.2260   16.9580   -3.9200 C   0  0  0  0  0  0  0  0  0  0  0  0
   47.5500   17.3460   -3.6780 C   0  0  0  0  0  3  0  0  0  0  0  0
   44.8930   18.1470   -3.7340 S   0  0  0  0  0  0  0  0  0  0  0  0
   45.2170   19.3340   -4.6560 O   0  0  0  0  0  0  0  0  0  0  0  0
   45.0910   18.8480   -2.3800 O   0  0  0  0  0  0  0  0  0  0  0  0
   43.1230   17.7540   -3.9170 C   0  0  0  0  0  2  0  0  0  0  0  0
   42.7000   16.6580   -2.9470 C   0  0  0  0  0  1  0  0  0  0  0  0
   56.1600   16.4620   -2.9110 C   0  0  2  0  0  3  0  0  0  0  0  0
   55.8900   14.9740   -2.7050 C   0  0  0  0  0  0  0  0  0  0  0  0
   56.6840   13.9460   -3.2390 C   0  0  0  0  0  0  0  0  0  0  0  0
   57.8900   14.0900   -4.1130 C   0  0  0  0  0  1  0  0  0  0  0  0
   56.0580   12.4580   -2.7640 S   0  0  0  0  0  0  0  0  0  0  0  0
   54.7860   13.0860   -1.8700 C   0  0  0  0  0  0  0  0  0  0  0  0
   53.7700   12.2830   -1.1300 C   0  0  0  0  0  1  0  0  0  0  0  0
   54.8270   14.4710   -1.9280 C   0  0  0  0  0  3  0  0  0  0  0  0
   56.4250   17.2070   -1.5770 C   0  0  0  0  0  2  0  0  0  0  0  0
   57.6690   18.1230   -1.5760 C   0  0  0  0  0  2  0  0  0  0  0  0
   58.9090   17.5640   -2.2990 C   0  0  0  0  0  2  0  0  0  0  0  0
   60.1290   18.4800   -2.1980 C   0  0  0  0  0  1  0  0  0  0  0  0
  1 30  1  0  0  0  0
  1 11  1  0  0  0  0
  2  3  2  0  0  0  0
  2  1  1  0  0  0  0
  4  2  2  0  0  0  0
  5  6  2  0  0  0  0
  5  2  1  0  0  0  0
  7  6  1  0  0  0  0
  8  7  1  0  0  0  0
  9 10  2  0  0  0  0
  9  7  1  0  0  0  0
 10  5  1  0  0  0  0
 12 11  1  0  0  0  0
 12 13  1  0  0  0  0
 13 14  1  0  0  0  0
 15 13  2  0  0  0  0
 16 15  1  0  0  0  0
 17 18  1  0  0  0  0
 17 16  2  0  0  0  0
 18 12  2  0  0  0  0
 19 24  1  0  0  0  0
 19 16  1  0  0  0  0
 20 19  2  0  0  0  0
 21 22  2  0  0  0  0
 21 20  1  0  0  0  0
 22 23  1  0  0  0  0
 23 25  1  0  0  0  0
 23 24  2  0  0  0  0
 25 27  2  0  0  0  0
 26 25  2  0  0  0  0
 28 25  1  0  0  0  0
 28 29  1  0  0  0  0
 30 31  1  0  0  0  0
 30 38  1  1  0  0  0
 31 37  1  0  0  0  0
 32 34  1  0  0  0  0
 32 31  2  0  0  0  0
 33 32  1  0  0  0  0
 34 35  1  0  0  0  0
 35 36  1  0  0  0  0
 37 35  2  0  0  0  0
 38 39  1  0  0  0  0
 40 41  1  0  0  0  0
 40 39  1  0  0  0  0
M  END
>  <POSE>
4

>  <SCORE>
-6.979

>  <RMSD_LB_BP>
2.399

>  <RMSD_UB_BP>
4.648

$$$$
/content/4EXS_VS/DOCKING/CLC-0000191/CLC-0000191_output.pdbqt
 OpenBabel03062504413D

 41 44  0  0  1  0  0  0  0  0999 V2000
   55.3810   18.5410   -4.5720 N   0  0  0  0  0  0  0  0  0  0  0  0
   55.7130   19.2760   -2.9640 S   0  0  0  0  0  0  0  0  0  0  0  0
   56.9360   20.1700   -3.2180 O   0  0  0  0  0  0  0  0  0  0  0  0
   56.3570   18.2030   -2.0770 O   0  0  0  0  0  0  0  0  0  0  0  0
   54.4610   20.2380   -2.1170 C   0  0  0  0  0  0  0  0  0  0  0  0
   53.8320   19.8770   -0.9470 C   0  0  0  0  0  3  0  0  0  0  0  0
   52.9780   20.8630   -0.6300 N   0  0  0  0  0  0  0  0  0  0  0  0
   52.1030   20.9070    0.5340 C   0  0  0  0  0  1  0  0  0  0  0  0
   53.0970   21.7940   -1.5960 C   0  0  0  0  0  3  0  0  0  0  0  0
   54.0060   21.4390   -2.5270 N   0  0  0  0  0  0  0  0  0  0  0  0
   55.0660   17.1000   -4.4370 C   0  0  0  0  0  2  0  0  0  0  0  0
   53.5700   16.8530   -4.4600 C   0  0  0  0  0  0  0  0  0  0  0  0
   52.8280   16.6870   -5.6520 C   0  0  0  0  0  0  0  0  0  0  0  0
   53.4790   16.7630   -7.0100 C   0  0  0  0  0  1  0  0  0  0  0  0
   51.4410   16.4560   -5.5810 C   0  0  0  0  0  3  0  0  0  0  0  0
   50.7530   16.3880   -4.3450 C   0  0  0  0  0  0  0  0  0  0  0  0
   51.5220   16.5710   -3.1740 C   0  0  0  0  0  3  0  0  0  0  0  0
   52.8960   16.8000   -3.2340 C   0  0  0  0  0  3  0  0  0  0  0  0
   49.2550   16.1310   -4.2790 C   0  0  0  0  0  0  0  0  0  0  0  0
   48.7110   14.8470   -4.5420 C   0  0  0  0  0  3  0  0  0  0  0  0
   47.3350   14.6150   -4.4850 C   0  0  0  0  0  3  0  0  0  0  0  0
   46.4590   15.6470   -4.1670 C   0  0  0  0  0  3  0  0  0  0  0  0
   46.9560   16.9220   -3.8990 C   0  0  0  0  0  0  0  0  0  0  0  0
   48.3350   17.1620   -3.9570 C   0  0  0  0  0  3  0  0  0  0  0  0
   45.8290   18.2600   -3.4950 S   0  0  0  0  0  0  0  0  0  0  0  0
   46.1270   19.4100   -4.4710 O   0  0  0  0  0  0  0  0  0  0  0  0
   46.3410   18.9170   -2.2030 O   0  0  0  0  0  0  0  0  0  0  0  0
   44.0190   18.0840   -3.3630 C   0  0  0  0  0  2  0  0  0  0  0  0
   43.4920   17.0560   -4.3560 C   0  0  0  0  0  1  0  0  0  0  0  0
   56.3630   18.7990   -5.6670 C   0  0  2  0  0  3  0  0  0  0  0  0
   55.9450   19.9160   -6.6200 C   0  0  0  0  0  0  0  0  0  0  0  0
   56.6620   21.1100   -6.7990 C   0  0  0  0  0  0  0  0  0  0  0  0
   57.9130   21.5330   -6.0960 C   0  0  0  0  0  1  0  0  0  0  0  0
   55.8770   22.0610   -7.9450 S   0  0  0  0  0  0  0  0  0  0  0  0
   54.6320   20.9770   -8.2410 C   0  0  0  0  0  0  0  0  0  0  0  0
   53.5130   21.1890   -9.2040 C   0  0  0  0  0  1  0  0  0  0  0  0
   54.8060   19.8530   -7.4470 C   0  0  0  0  0  3  0  0  0  0  0  0
   56.7360   17.4910   -6.4130 C   0  0  0  0  0  2  0  0  0  0  0  0
   58.2510   17.2150   -6.5310 C   0  0  0  0  0  2  0  0  0  0  0  0
   58.7200   16.6340   -7.8770 C   0  0  0  0  0  2  0  0  0  0  0  0
   58.0150   17.2570   -9.0820 C   0  0  0  0  0  1  0  0  0  0  0  0
  1 11  1  0  0  0  0
  1  2  1  0  0  0  0
  2  5  1  0  0  0  0
  2  4  2  0  0  0  0
  3  2  2  0  0  0  0
  5  6  2  0  0  0  0
  6  7  1  0  0  0  0
  7  8  1  0  0  0  0
  9  7  1  0  0  0  0
 10  5  1  0  0  0  0
 10  9  2  0  0  0  0
 12 11  1  0  0  0  0
 12 18  1  0  0  0  0
 13 15  1  0  0  0  0
 13 12  2  0  0  0  0
 14 13  1  0  0  0  0
 15 16  2  0  0  0  0
 16 19  1  0  0  0  0
 16 17  1  0  0  0  0
 18 17  2  0  0  0  0
 19 24  1  0  0  0  0
 20 21  1  0  0  0  0
 20 19  2  0  0  0  0
 21 22  2  0  0  0  0
 22 23  1  0  0  0  0
 23 25  1  0  0  0  0
 24 23  2  0  0  0  0
 25 28  1  0  0  0  0
 25 27  2  0  0  0  0
 26 25  2  0  0  0  0
 29 28  1  0  0  0  0
 30 38  1  6  0  0  0
 30  1  1  0  0  0  0
 31 30  1  0  0  0  0
 32 31  2  0  0  0  0
 32 33  1  0  0  0  0
 34 32  1  0  0  0  0
 35 34  1  0  0  0  0
 35 37  2  0  0  0  0
 36 35  1  0  0  0  0
 37 31  1  0  0  0  0
 39 38  1  0  0  0  0
 40 39  1  0  0  0  0
 41 40  1  0  0  0  0
M  END
>  <POSE>
5

>  <SCORE>
-6.938

>  <RMSD_LB_BP>
1.868

>  <RMSD_UB_BP>
2.890

$$$$
/content/4EXS_VS/DOCKING/CLC-0000191/CLC-0000191_output.pdbqt
 OpenBabel03062504413D

 41 44  0  0  1  0  0  0  0  0999 V2000
   55.1570   17.6380   -2.8530 N   0  0  0  0  0  0  0  0  0  0  0  0
   56.2980   16.6940   -1.8330 S   0  0  0  0  0  0  0  0  0  0  0  0
   55.5290   15.3990   -1.5290 O   0  0  0  0  0  0  0  0  0  0  0  0
   56.3120   17.3210   -0.4340 O   0  0  0  0  0  0  0  0  0  0  0  0
   57.9320   16.2680   -2.4350 C   0  0  0  0  0  0  0  0  0  0  0  0
   58.7440   17.0850   -3.1870 C   0  0  0  0  0  3  0  0  0  0  0  0
   59.8820   16.4140   -3.4230 N   0  0  0  0  0  0  0  0  0  0  0  0
   61.0300   16.8960   -4.1790 C   0  0  0  0  0  1  0  0  0  0  0  0
   59.7470   15.2160   -2.8210 C   0  0  0  0  0  3  0  0  0  0  0  0
   58.5560   15.0970   -2.2000 N   0  0  0  0  0  0  0  0  0  0  0  0
   54.7900   16.8800   -4.0720 C   0  0  0  0  0  2  0  0  0  0  0  0
   53.2910   16.6700   -4.1670 C   0  0  0  0  0  0  0  0  0  0  0  0
   52.5880   16.6400   -5.3940 C   0  0  0  0  0  0  0  0  0  0  0  0
   53.2860   16.8370   -6.7150 C   0  0  0  0  0  1  0  0  0  0  0  0
   51.1950   16.4340   -5.3900 C   0  0  0  0  0  3  0  0  0  0  0  0
   50.4640   16.2580   -4.1900 C   0  0  0  0  0  0  0  0  0  0  0  0
   51.1970   16.3060   -2.9830 C   0  0  0  0  0  3  0  0  0  0  0  0
   52.5750   16.5100   -2.9760 C   0  0  0  0  0  3  0  0  0  0  0  0
   48.9610   16.0290   -4.1980 C   0  0  0  0  0  0  0  0  0  0  0  0
   48.4050   14.7650   -4.5270 C   0  0  0  0  0  3  0  0  0  0  0  0
   47.0230   14.5590   -4.5380 C   0  0  0  0  0  3  0  0  0  0  0  0
   46.1540   15.5980   -4.2230 C   0  0  0  0  0  3  0  0  0  0  0  0
   46.6620   16.8530   -3.8920 C   0  0  0  0  0  0  0  0  0  0  0  0
   48.0460   17.0670   -3.8820 C   0  0  0  0  0  3  0  0  0  0  0  0
   45.5430   18.2000   -3.4930 S   0  0  0  0  0  0  0  0  0  0  0  0
   45.7510   19.2890   -4.5580 O   0  0  0  0  0  0  0  0  0  0  0  0
   46.1340   18.9440   -2.2850 O   0  0  0  0  0  0  0  0  0  0  0  0
   43.7500   18.0090   -3.2210 C   0  0  0  0  0  2  0  0  0  0  0  0
   43.0250   17.7050   -4.5250 C   0  0  0  0  0  1  0  0  0  0  0  0
   55.5120   19.0560   -3.1610 C   0  0  2  0  0  3  0  0  0  0  0  0
   54.6410   20.0810   -2.4410 C   0  0  0  0  0  0  0  0  0  0  0  0
   54.5450   21.4330   -2.8080 C   0  0  0  0  0  0  0  0  0  0  0  0
   55.2730   22.1280   -3.9140 C   0  0  0  0  0  1  0  0  0  0  0  0
   53.4690   22.2120   -1.7750 S   0  0  0  0  0  0  0  0  0  0  0  0
   53.0990   20.8570   -0.8590 C   0  0  0  0  0  0  0  0  0  0  0  0
   52.1550   20.8240    0.2950 C   0  0  0  0  0  1  0  0  0  0  0  0
   53.8130   19.7700   -1.3430 C   0  0  0  0  0  3  0  0  0  0  0  0
   55.5780   19.3030   -4.6910 C   0  0  0  0  0  2  0  0  0  0  0  0
   57.0030   19.4520   -5.2670 C   0  0  0  0  0  2  0  0  0  0  0  0
   57.1160   19.3570   -6.8000 C   0  0  0  0  0  2  0  0  0  0  0  0
   56.6090   18.0280   -7.3600 C   0  0  0  0  0  1  0  0  0  0  0  0
  1  2  1  0  0  0  0
  2  3  2  0  0  0  0
  2  4  2  0  0  0  0
  5 10  1  0  0  0  0
  5  2  1  0  0  0  0
  6  5  2  0  0  0  0
  7  6  1  0  0  0  0
  7  9  1  0  0  0  0
  8  7  1  0  0  0  0
  9 10  2  0  0  0  0
 11  1  1  0  0  0  0
 12 11  1  0  0  0  0
 12 18  1  0  0  0  0
 13 15  1  0  0  0  0
 13 12  2  0  0  0  0
 14 13  1  0  0  0  0
 15 16  2  0  0  0  0
 16 17  1  0  0  0  0
 17 18  2  0  0  0  0
 19 16  1  0  0  0  0
 19 24  1  0  0  0  0
 20 19  2  0  0  0  0
 21 20  1  0  0  0  0
 21 22  2  0  0  0  0
 22 23  1  0  0  0  0
 23 24  2  0  0  0  0
 23 25  1  0  0  0  0
 25 28  1  0  0  0  0
 25 27  2  0  0  0  0
 26 25  2  0  0  0  0
 29 28  1  0  0  0  0
 30 38  1  6  0  0  0
 30  1  1  0  0  0  0
 30 31  1  0  0  0  0
 31 37  1  0  0  0  0
 32 31  2  0  0  0  0
 32 34  1  0  0  0  0
 33 32  1  0  0  0  0
 34 35  1  0  0  0  0
 35 36  1  0  0  0  0
 37 35  2  0  0  0  0
 39 38  1  0  0  0  0
 40 39  1  0  0  0  0
 41 40  1  0  0  0  0
M  END
>  <POSE>
6

>  <SCORE>
-6.801

>  <RMSD_LB_BP>
2.229

>  <RMSD_UB_BP>
5.127

$$$$
/content/4EXS_VS/DOCKING/CLC-0000191/CLC-0000191_output.pdbqt
 OpenBabel03062504413D

 41 44  0  0  1  0  0  0  0  0999 V2000
   54.8210   17.9680   -3.7620 N   0  0  0  0  0  0  0  0  0  0  0  0
   55.2980   19.7020   -3.7920 S   0  0  0  0  0  0  0  0  0  0  0  0
   56.2200   19.8470   -2.5710 O   0  0  0  0  0  0  0  0  0  0  0  0
   54.1000   20.5310   -3.3110 O   0  0  0  0  0  0  0  0  0  0  0  0
   56.1180   20.4060   -5.2210 C   0  0  0  0  0  0  0  0  0  0  0  0
   57.3480   21.0240   -5.2120 C   0  0  0  0  0  3  0  0  0  0  0  0
   57.6190   21.3970   -6.4720 N   0  0  0  0  0  0  0  0  0  0  0  0
   58.8190   22.0840   -6.9320 C   0  0  0  0  0  1  0  0  0  0  0  0
   56.5670   21.0090   -7.2180 C   0  0  0  0  0  3  0  0  0  0  0  0
   55.6250   20.3910   -6.4760 N   0  0  0  0  0  0  0  0  0  0  0  0
   54.0840   17.6470   -2.5180 C   0  0  0  0  0  2  0  0  0  0  0  0
   52.6570   17.2230   -2.8100 C   0  0  0  0  0  0  0  0  0  0  0  0
   52.2560   15.8720   -2.9220 C   0  0  0  0  0  0  0  0  0  0  0  0
   53.2380   14.7370   -2.7760 C   0  0  0  0  0  1  0  0  0  0  0  0
   50.9080   15.5680   -3.1910 C   0  0  0  0  0  3  0  0  0  0  0  0
   49.9290   16.5770   -3.3580 C   0  0  0  0  0  0  0  0  0  0  0  0
   50.3670   17.9160   -3.2520 C   0  0  0  0  0  3  0  0  0  0  0  0
   51.6990   18.2270   -2.9870 C   0  0  0  0  0  3  0  0  0  0  0  0
   48.4730   16.2370   -3.6400 C   0  0  0  0  0  0  0  0  0  0  0  0
   48.0790   14.9310   -4.0310 C   0  0  0  0  0  3  0  0  0  0  0  0
   46.7420   14.6230   -4.2940 C   0  0  0  0  0  3  0  0  0  0  0  0
   45.7590   15.5990   -4.1770 C   0  0  0  0  0  3  0  0  0  0  0  0
   46.1060   16.8930   -3.7920 C   0  0  0  0  0  0  0  0  0  0  0  0
   47.4460   17.2090   -3.5300 C   0  0  0  0  0  3  0  0  0  0  0  0
   44.8400   18.1590   -3.6470 S   0  0  0  0  0  0  0  0  0  0  0  0
   45.1590   19.2370   -4.6960 O   0  0  0  0  0  0  0  0  0  0  0  0
   45.1500   18.9730   -2.3800 O   0  0  0  0  0  0  0  0  0  0  0  0
   43.0470   17.8380   -3.6920 C   0  0  0  0  0  2  0  0  0  0  0  0
   42.7010   16.5430   -2.9690 C   0  0  0  0  0  1  0  0  0  0  0  0
   55.8750   16.9550   -4.0660 C   0  0  2  0  0  3  0  0  0  0  0  0
   57.2100   17.2280   -3.3790 C   0  0  0  0  0  0  0  0  0  0  0  0
   57.5100   16.8540   -2.0590 C   0  0  0  0  0  0  0  0  0  0  0  0
   56.6090   16.1690   -1.0820 C   0  0  0  0  0  1  0  0  0  0  0  0
   59.0850   17.3220   -1.6950 S   0  0  0  0  0  0  0  0  0  0  0  0
   59.4160   17.9910   -3.1970 C   0  0  0  0  0  0  0  0  0  0  0  0
   60.7050   18.6250   -3.5960 C   0  0  0  0  0  1  0  0  0  0  0  0
   58.3000   17.8630   -4.0100 C   0  0  0  0  0  3  0  0  0  0  0  0
   56.0270   16.7370   -5.5940 C   0  0  0  0  0  2  0  0  0  0  0  0
   54.7090   16.4570   -6.3480 C   0  0  0  0  0  2  0  0  0  0  0  0
   54.5260   17.2160   -7.6760 C   0  0  0  0  0  2  0  0  0  0  0  0
   55.7870   17.2340   -8.5390 C   0  0  0  0  0  1  0  0  0  0  0  0
  1 11  1  0  0  0  0
  2  1  1  0  0  0  0
  2  4  2  0  0  0  0
  2  3  2  0  0  0  0
  5  6  2  0  0  0  0
  5  2  1  0  0  0  0
  7  6  1  0  0  0  0
  8  7  1  0  0  0  0
  9 10  2  0  0  0  0
  9  7  1  0  0  0  0
 10  5  1  0  0  0  0
 12 11  1  0  0  0  0
 13 12  1  0  0  0  0
 13 14  1  0  0  0  0
 15 13  2  0  0  0  0
 16 17  2  0  0  0  0
 16 15  1  0  0  0  0
 17 18  1  0  0  0  0
 18 12  2  0  0  0  0
 19 24  1  0  0  0  0
 19 16  1  0  0  0  0
 20 19  2  0  0  0  0
 21 22  2  0  0  0  0
 21 20  1  0  0  0  0
 22 23  1  0  0  0  0
 23 25  1  0  0  0  0
 23 24  2  0  0  0  0
 25 27  2  0  0  0  0
 26 25  2  0  0  0  0
 28 25  1  0  0  0  0
 28 29  1  0  0  0  0
 30 38  1  6  0  0  0
 30  1  1  0  0  0  0
 30 31  1  0  0  0  0
 31 32  2  0  0  0  0
 32 34  1  0  0  0  0
 32 33  1  0  0  0  0
 35 34  1  0  0  0  0
 36 35  1  0  0  0  0
 37 31  1  0  0  0  0
 37 35  2  0  0  0  0
 39 38  1  0  0  0  0
 40 39  1  0  0  0  0
 41 40  1  0  0  0  0
M  END
>  <POSE>
7

>  <SCORE>
-6.449

>  <RMSD_LB_BP>
2.339

>  <RMSD_UB_BP>
4.190

$$$$
/content/4EXS_VS/DOCKING/CLC-0000191/CLC-0000191_output.pdbqt
 OpenBabel03062504413D

 41 44  0  0  1  0  0  0  0  0999 V2000
   55.0790   16.8020   -2.5780 N   0  0  0  0  0  0  0  0  0  0  0  0
   55.7550   15.1680   -2.2480 S   0  0  0  0  0  0  0  0  0  0  0  0
   54.6250   14.2150   -2.6670 O   0  0  0  0  0  0  0  0  0  0  0  0
   55.7340   14.9440   -0.7310 O   0  0  0  0  0  0  0  0  0  0  0  0
   57.2790   14.6300   -3.0230 C   0  0  0  0  0  0  0  0  0  0  0  0
   57.4290   14.3090   -4.3530 C   0  0  0  0  0  3  0  0  0  0  0  0
   58.7140   13.9720   -4.5430 N   0  0  0  0  0  0  0  0  0  0  0  0
   59.3240   13.5640   -5.8010 C   0  0  0  0  0  1  0  0  0  0  0  0
   59.3180   14.0900   -3.3450 C   0  0  0  0  0  3  0  0  0  0  0  0
   58.4600   14.4980   -2.3870 N   0  0  0  0  0  0  0  0  0  0  0  0
   54.6150   16.9060   -3.9810 C   0  0  0  0  0  2  0  0  0  0  0  0
   53.1180   16.6900   -4.0890 C   0  0  0  0  0  0  0  0  0  0  0  0
   52.4340   16.6000   -5.3240 C   0  0  0  0  0  0  0  0  0  0  0  0
   53.1530   16.7330   -6.6420 C   0  0  0  0  0  1  0  0  0  0  0  0
   51.0420   16.3930   -5.3320 C   0  0  0  0  0  3  0  0  0  0  0  0
   50.2920   16.2750   -4.1360 C   0  0  0  0  0  0  0  0  0  0  0  0
   51.0050   16.3830   -2.9220 C   0  0  0  0  0  3  0  0  0  0  0  0
   52.3830   16.5880   -2.9030 C   0  0  0  0  0  3  0  0  0  0  0  0
   48.7890   16.0450   -4.1570 C   0  0  0  0  0  0  0  0  0  0  0  0
   48.2380   14.7680   -4.4420 C   0  0  0  0  0  3  0  0  0  0  0  0
   46.8570   14.5600   -4.4650 C   0  0  0  0  0  3  0  0  0  0  0  0
   45.9820   15.6100   -4.2060 C   0  0  0  0  0  3  0  0  0  0  0  0
   46.4850   16.8780   -3.9190 C   0  0  0  0  0  0  0  0  0  0  0  0
   47.8690   17.0940   -3.8980 C   0  0  0  0  0  3  0  0  0  0  0  0
   45.3600   18.2400   -3.5920 S   0  0  0  0  0  0  0  0  0  0  0  0
   45.7070   19.3590   -4.5870 O   0  0  0  0  0  0  0  0  0  0  0  0
   45.8340   18.9250   -2.3010 O   0  0  0  0  0  0  0  0  0  0  0  0
   43.5450   18.0870   -3.5210 C   0  0  0  0  0  2  0  0  0  0  0  0
   43.1270   16.6800   -3.1140 C   0  0  0  0  0  1  0  0  0  0  0  0
   55.8950   17.9840   -2.1680 C   0  0  2  0  0  3  0  0  0  0  0  0
   55.2180   19.3250   -2.4440 C   0  0  0  0  0  0  0  0  0  0  0  0
   54.3260   19.9550   -1.5600 C   0  0  0  0  0  0  0  0  0  0  0  0
   53.8480   19.4480   -0.2370 C   0  0  0  0  0  1  0  0  0  0  0  0
   53.8230   21.4150   -2.2290 S   0  0  0  0  0  0  0  0  0  0  0  0
   54.7300   21.2800   -3.6340 C   0  0  0  0  0  0  0  0  0  0  0  0
   54.7650   22.2810   -4.7390 C   0  0  0  0  0  1  0  0  0  0  0  0
   55.4410   20.0890   -3.6060 C   0  0  0  0  0  3  0  0  0  0  0  0
   57.3290   17.9130   -2.7530 C   0  0  0  0  0  3  0  0  0  0  0  0
   58.3950   18.7080   -1.9670 C   0  0  0  0  0  3  0  0  0  0  0  0
   59.7480   18.8920   -2.6790 C   0  0  0  0  0  2  0  0  0  0  0  0
   59.6430   19.6880   -3.9790 C   0  0  0  0  0  1  0  0  0  0  0  0
  1  2  1  0  0  0  0
  1 30  1  0  0  0  0
  2  4  2  0  0  0  0
  3  2  2  0  0  0  0
  5 10  1  0  0  0  0
  5  2  1  0  0  0  0
  6  5  2  0  0  0  0
  7  6  1  0  0  0  0
  7  9  1  0  0  0  0
  8  7  1  0  0  0  0
  9 10  2  0  0  0  0
 11  1  1  0  0  0  0
 12 11  1  0  0  0  0
 12 18  1  0  0  0  0
 13 12  2  0  0  0  0
 14 13  1  0  0  0  0
 15 13  1  0  0  0  0
 15 16  2  0  0  0  0
 16 17  1  0  0  0  0
 17 18  2  0  0  0  0
 19 16  1  0  0  0  0
 19 24  1  0  0  0  0
 20 19  2  0  0  0  0
 21 20  1  0  0  0  0
 21 22  2  0  0  0  0
 22 23  1  0  0  0  0
 23 24  2  0  0  0  0
 23 25  1  0  0  0  0
 25 28  1  0  0  0  0
 25 27  2  0  0  0  0
 26 25  2  0  0  0  0
 28 29  1  0  0  0  0
 30 38  1  6  0  0  0
 31 30  1  0  0  0  0
 31 32  2  0  0  0  0
 32 33  1  0  0  0  0
 34 32  1  0  0  0  0
 35 37  2  0  0  0  0
 35 34  1  0  0  0  0
 36 35  1  0  0  0  0
 37 31  1  0  0  0  0
 38 39  2  0  0  0  0
 40 39  1  0  0  0  0
 41 40  1  0  0  0  0
M  END
>  <POSE>
8

>  <SCORE>
-6.417

>  <RMSD_LB_BP>
2.567

>  <RMSD_UB_BP>
5.128

$$$$
/content/4EXS_VS/DOCKING/CLC-0000191/CLC-0000191_output.pdbqt
 OpenBabel03062504413D

 41 44  0  0  1  0  0  0  0  0999 V2000
   54.9720   16.7620   -3.3120 N   0  0  0  0  0  0  0  0  0  0  0  0
   55.8680   17.5100   -4.6800 S   0  0  0  0  0  0  0  0  0  0  0  0
   54.7670   17.8410   -5.6990 O   0  0  0  0  0  0  0  0  0  0  0  0
   56.5940   16.3920   -5.4390 O   0  0  0  0  0  0  0  0  0  0  0  0
   56.8790   18.9680   -4.4290 C   0  0  0  0  0  0  0  0  0  0  0  0
   57.9360   19.3530   -5.2220 C   0  0  0  0  0  3  0  0  0  0  0  0
   58.4210   20.4980   -4.7170 N   0  0  0  0  0  0  0  0  0  0  0  0
   59.5420   21.2680   -5.2390 C   0  0  0  0  0  1  0  0  0  0  0  0
   57.6640   20.7890   -3.6410 C   0  0  0  0  0  3  0  0  0  0  0  0
   56.7020   19.8660   -3.4390 N   0  0  0  0  0  0  0  0  0  0  0  0
   54.0910   17.7550   -2.6550 C   0  0  0  0  0  2  0  0  0  0  0  0
   52.6260   17.4500   -2.9040 C   0  0  0  0  0  0  0  0  0  0  0  0
   51.5790   18.3330   -2.5530 C   0  0  0  0  0  0  0  0  0  0  0  0
   51.8460   19.6540   -1.8770 C   0  0  0  0  0  1  0  0  0  0  0  0
   50.2460   17.9720   -2.8260 C   0  0  0  0  0  3  0  0  0  0  0  0
   49.9110   16.7410   -3.4430 C   0  0  0  0  0  0  0  0  0  0  0  0
   50.9810   15.8780   -3.7690 C   0  0  0  0  0  3  0  0  0  0  0  0
   52.3040   16.2260   -3.5020 C   0  0  0  0  0  3  0  0  0  0  0  0
   48.4680   16.3650   -3.7400 C   0  0  0  0  0  0  0  0  0  0  0  0
   48.1250   15.0830   -4.2420 C   0  0  0  0  0  3  0  0  0  0  0  0
   46.7980   14.7410   -4.5190 C   0  0  0  0  0  3  0  0  0  0  0  0
   45.7760   15.6590   -4.3050 C   0  0  0  0  0  3  0  0  0  0  0  0
   46.0730   16.9280   -3.8100 C   0  0  0  0  0  0  0  0  0  0  0  0
   47.4010   17.2770   -3.5330 C   0  0  0  0  0  3  0  0  0  0  0  0
   44.7570   18.1200   -3.5400 S   0  0  0  0  0  0  0  0  0  0  0  0
   44.9070   19.2080   -4.6150 O   0  0  0  0  0  0  0  0  0  0  0  0
   45.1430   18.9570   -2.3100 O   0  0  0  0  0  0  0  0  0  0  0  0
   42.9890   17.6960   -3.4060 C   0  0  0  0  0  2  0  0  0  0  0  0
   42.3530   17.5470   -4.7820 C   0  0  0  0  0  1  0  0  0  0  0  0
   55.7580   15.9680   -2.3210 C   0  0  2  0  0  3  0  0  0  0  0  0
   57.2080   16.4210   -2.1780 C   0  0  0  0  0  0  0  0  0  0  0  0
   57.6560   17.3470   -1.2220 C   0  0  0  0  0  0  0  0  0  0  0  0
   56.8320   18.0770   -0.2080 C   0  0  0  0  0  1  0  0  0  0  0  0
   59.3170   17.5570   -1.3890 S   0  0  0  0  0  0  0  0  0  0  0  0
   59.4990   16.4760   -2.6590 C   0  0  0  0  0  0  0  0  0  0  0  0
   60.7850   16.1520   -3.3400 C   0  0  0  0  0  1  0  0  0  0  0  0
   58.2630   15.9340   -2.9770 C   0  0  0  0  0  3  0  0  0  0  0  0
   55.6360   14.4460   -2.5900 C   0  0  0  0  0  2  0  0  0  0  0  0
   55.0420   13.6220   -1.4260 C   0  0  0  0  0  2  0  0  0  0  0  0
   54.2140   12.3900   -1.8350 C   0  0  0  0  0  2  0  0  0  0  0  0
   52.7090   12.5890   -1.6570 C   0  0  0  0  0  1  0  0  0  0  0  0
  1 11  1  0  0  0  0
  1 30  1  0  0  0  0
  2  5  1  0  0  0  0
  2  1  1  0  0  0  0
  3  2  2  0  0  0  0
  4  2  2  0  0  0  0
  5 10  1  0  0  0  0
  6  7  1  0  0  0  0
  6  5  2  0  0  0  0
  7  9  1  0  0  0  0
  8  7  1  0  0  0  0
  9 10  2  0  0  0  0
 12 11  1  0  0  0  0
 12 13  1  0  0  0  0
 13 14  1  0  0  0  0
 15 13  2  0  0  0  0
 16 15  1  0  0  0  0
 17 18  1  0  0  0  0
 17 16  2  0  0  0  0
 18 12  2  0  0  0  0
 19 24  1  0  0  0  0
 19 16  1  0  0  0  0
 20 19  2  0  0  0  0
 21 22  2  0  0  0  0
 21 20  1  0  0  0  0
 22 23  1  0  0  0  0
 23 25  1  0  0  0  0
 23 24  2  0  0  0  0
 25 28  1  0  0  0  0
 25 27  2  0  0  0  0
 26 25  2  0  0  0  0
 29 28  1  0  0  0  0
 30 38  1  6  0  0  0
 30 31  1  0  0  0  0
 31 32  2  0  0  0  0
 32 33  1  0  0  0  0
 34 32  1  0  0  0  0
 35 34  1  0  0  0  0
 36 35  1  0  0  0  0
 37 35  2  0  0  0  0
 37 31  1  0  0  0  0
 38 39  1  0  0  0  0
 40 41  1  0  0  0  0
 40 39  1  0  0  0  0
M  END
>  <POSE>
9

>  <SCORE>
-6.264

>  <RMSD_LB_BP>
2.391

>  <RMSD_UB_BP>
4.115

$$$$
