/content/1PQ6_Docking/DOCKING/CLC-0000187/CLC-0000187_output.pdbqt
 OpenBabel03072503353D

 39 42  0  0  1  0  0  0  0  0999 V2000
   17.8800   -4.4120   60.3470 N   0  0  0  0  0  0  0  0  0  0  0  0
   17.9050   -6.1980   60.5640 S   0  0  0  0  0  0  0  0  0  0  0  0
   16.4560   -6.6570   60.7610 O   0  0  0  0  0  0  0  0  0  0  0  0
   18.5170   -6.4620   61.9490 O   0  0  0  0  0  0  0  0  0  0  0  0
   18.6920   -7.1510   59.2710 C   0  0  0  0  0  0  0  0  0  0  0  0
   19.9870   -7.0090   58.8280 C   0  0  0  0  0  3  0  0  0  0  0  0
   20.1660   -7.8850   57.8270 N   0  0  0  0  0  0  0  0  0  0  0  0
   21.3830   -8.0760   57.0480 C   0  0  0  0  0  1  0  0  0  0  0  0
   18.9970   -8.5410   57.6830 C   0  0  0  0  0  3  0  0  0  0  0  0
   18.0660   -8.1100   58.5590 N   0  0  0  0  0  0  0  0  0  0  0  0
   17.2090   -4.0420   59.0820 C   0  0  0  0  0  2  0  0  0  0  0  0
   15.7700   -3.6430   59.3320 C   0  0  0  0  0  0  0  0  0  0  0  0
   15.3240   -2.3010   59.3110 C   0  0  0  0  0  0  0  0  0  0  0  0
   16.2720   -1.1550   59.0570 C   0  0  0  0  0  1  0  0  0  0  0  0
   13.9630   -2.0200   59.5270 C   0  0  0  0  0  3  0  0  0  0  0  0
   13.0140   -3.0410   59.7710 C   0  0  0  0  0  0  0  0  0  0  0  0
   13.4960   -4.3700   59.8030 C   0  0  0  0  0  3  0  0  0  0  0  0
   14.8420   -4.6600   59.5880 C   0  0  0  0  0  3  0  0  0  0  0  0
   11.5460   -2.7270   59.9890 C   0  0  0  0  0  0  0  0  0  0  0  0
   10.6570   -3.6830   60.5450 C   0  0  0  0  0  3  0  0  0  0  0  0
    9.3060   -3.3880   60.7450 C   0  0  0  0  0  3  0  0  0  0  0  0
    8.8000   -2.1390   60.4000 C   0  0  0  0  0  3  0  0  0  0  0  0
    9.6440   -1.1740   59.8540 C   0  0  0  0  0  0  0  0  0  0  0  0
   11.0000   -1.4630   59.6490 C   0  0  0  0  0  3  0  0  0  0  0  0
    8.9880    0.4350   59.3990 S   0  0  0  0  0  0  0  0  0  0  0  0
    9.5550    1.4590   60.3960 O   0  0  0  0  0  0  0  0  0  0  0  0
    9.0730    1.1760   57.7450 C   0  0  0  0  0  1  0  0  0  0  0  0
    7.5190    0.4750   59.8490 O   0  0  0  0  0  0  0  0  0  0  0  0
   19.1740   -3.7120   60.5770 C   0  0  2  0  0  3  0  0  0  0  0  0
   19.2800   -3.0710   61.9730 C   0  0  0  0  0  0  0  0  0  0  0  0
   18.3410   -2.2960   62.7080 C   0  0  0  0  0  0  0  0  0  0  0  0
   16.9410   -1.8590   62.4020 C   0  0  0  0  0  1  0  0  0  0  0  0
   19.0370   -1.8620   64.1790 S   0  0  0  0  0  0  0  0  0  0  0  0
   20.5050   -2.6120   63.9290 C   0  0  0  0  0  0  0  0  0  0  0  0
   21.6520   -2.6170   64.8840 C   0  0  0  0  0  1  0  0  0  0  0  0
   20.4880   -3.2230   62.6890 C   0  0  0  0  0  3  0  0  0  0  0  0
   19.5520   -2.8740   59.3300 C   0  0  0  0  0  2  0  0  0  0  0  0
   19.5680   -1.3440   59.5440 C   0  0  0  0  0  2  0  0  0  0  0  0
   19.9900   -0.5520   58.3060 C   0  0  0  0  0  1  0  0  0  0  0  0
  1  2  1  0  0  0  0
  1 29  1  0  0  0  0
  2  3  2  0  0  0  0
  2  4  2  0  0  0  0
  5  2  1  0  0  0  0
  6  5  2  0  0  0  0
  7  6  1  0  0  0  0
  8  7  1  0  0  0  0
  9  7  1  0  0  0  0
  9 10  2  0  0  0  0
 10  5  1  0  0  0  0
 11 12  1  0  0  0  0
 11  1  1  0  0  0  0
 12 18  1  0  0  0  0
 13 12  2  0  0  0  0
 13 15  1  0  0  0  0
 14 13  1  0  0  0  0
 15 16  2  0  0  0  0
 16 17  1  0  0  0  0
 16 19  1  0  0  0  0
 18 17  2  0  0  0  0
 19 20  1  0  0  0  0
 20 21  2  0  0  0  0
 22 21  1  0  0  0  0
 23 22  2  0  0  0  0
 24 23  1  0  0  0  0
 24 19  2  0  0  0  0
 25 28  2  0  0  0  0
 25 23  1  0  0  0  0
 25 26  2  0  0  0  0
 27 25  1  0  0  0  0
 29 37  1  6  0  0  0
 29 30  1  0  0  0  0
 30 36  1  0  0  0  0
 30 31  2  0  0  0  0
 31 33  1  0  0  0  0
 32 31  1  0  0  0  0
 34 33  1  0  0  0  0
 34 35  1  0  0  0  0
 36 34  2  0  0  0  0
 37 38  1  0  0  0  0
 39 38  1  0  0  0  0
M  END
>  <POSE>
1

>  <SCORE>
-12.003

>  <RMSD_LB_BP>
0.000

>  <RMSD_UB_BP>
0.000

$$$$
/content/1PQ6_Docking/DOCKING/CLC-0000187/CLC-0000187_output.pdbqt
 OpenBabel03072503353D

 39 42  0  0  1  0  0  0  0  0999 V2000
   17.4680   -2.5560   60.1630 N   0  0  0  0  0  0  0  0  0  0  0  0
   18.0170   -1.6650   61.6250 S   0  0  0  0  0  0  0  0  0  0  0  0
   16.7910   -1.4490   62.5200 O   0  0  0  0  0  0  0  0  0  0  0  0
   18.3390   -0.2330   61.1710 O   0  0  0  0  0  0  0  0  0  0  0  0
   19.3500   -2.4060   62.5610 C   0  0  0  0  0  0  0  0  0  0  0  0
   19.7770   -2.0230   63.8120 C   0  0  0  0  0  3  0  0  0  0  0  0
   20.8180   -2.8060   64.1360 N   0  0  0  0  0  0  0  0  0  0  0  0
   21.5970   -2.7470   65.3670 C   0  0  0  0  0  1  0  0  0  0  0  0
   21.0020   -3.6430   63.0960 C   0  0  0  0  0  3  0  0  0  0  0  0
   20.1120   -3.4210   62.1070 N   0  0  0  0  0  0  0  0  0  0  0  0
   16.6980   -3.7630   60.5360 C   0  0  0  0  0  2  0  0  0  0  0  0
   15.2140   -3.5410   60.3270 C   0  0  0  0  0  0  0  0  0  0  0  0
   14.2260   -4.4560   60.7600 C   0  0  0  0  0  0  0  0  0  0  0  0
   14.5910   -5.7470   61.4500 C   0  0  0  0  0  1  0  0  0  0  0  0
   12.8680   -4.1600   60.5500 C   0  0  0  0  0  3  0  0  0  0  0  0
   12.4490   -2.9690   59.9100 C   0  0  0  0  0  0  0  0  0  0  0  0
   13.4620   -2.0850   59.4730 C   0  0  0  0  0  3  0  0  0  0  0  0
   14.8110   -2.3670   59.6790 C   0  0  0  0  0  3  0  0  0  0  0  0
   10.9800   -2.6530   59.7010 C   0  0  0  0  0  0  0  0  0  0  0  0
    9.9970   -3.6760   59.6760 C   0  0  0  0  0  3  0  0  0  0  0  0
    8.6450   -3.3800   59.4860 C   0  0  0  0  0  3  0  0  0  0  0  0
    8.2300   -2.0630   59.3150 C   0  0  0  0  0  3  0  0  0  0  0  0
    9.1670   -1.0310   59.3370 C   0  0  0  0  0  0  0  0  0  0  0  0
   10.5250   -1.3210   59.5250 C   0  0  0  0  0  3  0  0  0  0  0  0
    8.6330    0.6680   59.1060 S   0  0  0  0  0  0  0  0  0  0  0  0
    9.3740    1.5260   60.1440 O   0  0  0  0  0  0  0  0  0  0  0  0
    8.6530    1.5720   57.5340 C   0  0  0  0  0  1  0  0  0  0  0  0
    7.2170    0.7870   59.6900 O   0  0  0  0  0  0  0  0  0  0  0  0
   18.5040   -2.7940   59.1200 C   0  0  2  0  0  3  0  0  0  0  0  0
   18.8050   -4.2860   58.8890 C   0  0  0  0  0  0  0  0  0  0  0  0
   19.0910   -4.9970   57.6920 C   0  0  0  0  0  0  0  0  0  0  0  0
   19.2230   -4.5530   56.2670 C   0  0  0  0  0  1  0  0  0  0  0  0
   19.3220   -6.6220   58.0730 S   0  0  0  0  0  0  0  0  0  0  0  0
   19.0630   -6.4750   59.7140 C   0  0  0  0  0  0  0  0  0  0  0  0
   19.1100   -7.5910   60.7040 C   0  0  0  0  0  1  0  0  0  0  0  0
   18.7920   -5.1510   60.0060 C   0  0  0  0  0  3  0  0  0  0  0  0
   19.6830   -1.8060   59.3100 C   0  0  0  0  0  2  0  0  0  0  0  0
   19.8140   -0.7190   58.2200 C   0  0  0  0  0  2  0  0  0  0  0  0
   18.4730   -0.1930   57.7090 C   0  0  0  0  0  1  0  0  0  0  0  0
  1 11  1  0  0  0  0
  1  2  1  0  0  0  0
  2  3  2  0  0  0  0
  2  5  1  0  0  0  0
  4  2  2  0  0  0  0
  5  6  2  0  0  0  0
  6  7  1  0  0  0  0
  7  8  1  0  0  0  0
  9  7  1  0  0  0  0
 10  5  1  0  0  0  0
 10  9  2  0  0  0  0
 12 11  1  0  0  0  0
 12 13  1  0  0  0  0
 13 14  1  0  0  0  0
 15 13  2  0  0  0  0
 16 15  1  0  0  0  0
 17 18  1  0  0  0  0
 17 16  2  0  0  0  0
 18 12  2  0  0  0  0
 19 16  1  0  0  0  0
 20 19  1  0  0  0  0
 21 20  2  0  0  0  0
 22 23  2  0  0  0  0
 22 21  1  0  0  0  0
 23 24  1  0  0  0  0
 24 19  2  0  0  0  0
 25 23  1  0  0  0  0
 25 28  2  0  0  0  0
 25 26  2  0  0  0  0
 27 25  1  0  0  0  0
 29 37  1  1  0  0  0
 29  1  1  0  0  0  0
 30 29  1  0  0  0  0
 30 36  1  0  0  0  0
 31 33  1  0  0  0  0
 31 30  2  0  0  0  0
 32 31  1  0  0  0  0
 33 34  1  0  0  0  0
 34 36  2  0  0  0  0
 34 35  1  0  0  0  0
 38 37  1  0  0  0  0
 39 38  1  0  0  0  0
M  END
>  <POSE>
2

>  <SCORE>
-11.085

>  <RMSD_LB_BP>
2.312

>  <RMSD_UB_BP>
4.430

$$$$
/content/1PQ6_Docking/DOCKING/CLC-0000187/CLC-0000187_output.pdbqt
 OpenBabel03072503353D

 39 42  0  0  1  0  0  0  0  0999 V2000
   18.0390   -5.5950   59.7750 N   0  0  0  0  0  0  0  0  0  0  0  0
   18.3920   -4.2200   60.8790 S   0  0  0  0  0  0  0  0  0  0  0  0
   19.8360   -4.3820   61.3670 O   0  0  0  0  0  0  0  0  0  0  0  0
   17.5890   -4.4720   62.1640 O   0  0  0  0  0  0  0  0  0  0  0  0
   18.1370   -2.5760   60.2190 C   0  0  0  0  0  0  0  0  0  0  0  0
   18.4720   -2.1450   58.9560 C   0  0  0  0  0  3  0  0  0  0  0  0
   18.1490   -0.8450   58.8780 N   0  0  0  0  0  0  0  0  0  0  0  0
   18.3410    0.0290   57.7270 C   0  0  0  0  0  1  0  0  0  0  0  0
   17.6260   -0.5120   60.0750 C   0  0  0  0  0  3  0  0  0  0  0  0
   17.6050   -1.5590   60.9250 N   0  0  0  0  0  0  0  0  0  0  0  0
   16.7070   -6.1720   60.0570 C   0  0  0  0  0  2  0  0  0  0  0  0
   15.6290   -5.1120   59.9610 C   0  0  0  0  0  0  0  0  0  0  0  0
   14.5740   -4.9940   60.8960 C   0  0  0  0  0  0  0  0  0  0  0  0
   14.4360   -5.9460   62.0590 C   0  0  0  0  0  1  0  0  0  0  0  0
   13.6300   -3.9630   60.7480 C   0  0  0  0  0  3  0  0  0  0  0  0
   13.6930   -3.0320   59.6840 C   0  0  0  0  0  0  0  0  0  0  0  0
   14.7490   -3.1890   58.7570 C   0  0  0  0  0  3  0  0  0  0  0  0
   15.6930   -4.2060   58.8960 C   0  0  0  0  0  3  0  0  0  0  0  0
   12.6770   -1.9150   59.5420 C   0  0  0  0  0  0  0  0  0  0  0  0
   13.0560   -0.6160   59.1180 C   0  0  0  0  0  3  0  0  0  0  0  0
   12.1160    0.4090   58.9870 C   0  0  0  0  0  3  0  0  0  0  0  0
   10.7750    0.1740   59.2730 C   0  0  0  0  0  3  0  0  0  0  0  0
   10.3640   -1.0910   59.6890 C   0  0  0  0  0  0  0  0  0  0  0  0
   11.3020   -2.1230   59.8240 C   0  0  0  0  0  3  0  0  0  0  0  0
    8.6340   -1.3910   60.0670 S   0  0  0  0  0  0  0  0  0  0  0  0
    8.5830   -2.1540   61.3990 O   0  0  0  0  0  0  0  0  0  0  0  0
    7.3330   -0.1280   60.1090 C   0  0  0  0  0  1  0  0  0  0  0  0
    8.1530   -2.5210   59.1440 O   0  0  0  0  0  0  0  0  0  0  0  0
   19.1220   -6.6070   59.6310 C   0  0  2  0  0  3  0  0  0  0  0  0
   19.5650   -6.8220   58.1720 C   0  0  0  0  0  0  0  0  0  0  0  0
   18.8700   -7.3870   57.0680 C   0  0  0  0  0  0  0  0  0  0  0  0
   17.4830   -7.9380   56.9300 C   0  0  0  0  0  1  0  0  0  0  0  0
   19.8840   -7.3620   55.7240 S   0  0  0  0  0  0  0  0  0  0  0  0
   21.1960   -6.6660   56.4820 C   0  0  0  0  0  0  0  0  0  0  0  0
   22.5050   -6.3530   55.8390 C   0  0  0  0  0  1  0  0  0  0  0  0
   20.8730   -6.4330   57.8060 C   0  0  0  0  0  3  0  0  0  0  0  0
   18.8160   -7.8410   60.5170 C   0  0  0  0  0  2  0  0  0  0  0  0
   19.5240   -9.1470   60.0960 C   0  0  0  0  0  2  0  0  0  0  0  0
   19.8510  -10.0770   61.2660 C   0  0  0  0  0  1  0  0  0  0  0  0
  1 11  1  0  0  0  0
  1  2  1  0  0  0  0
  2  3  2  0  0  0  0
  2  4  2  0  0  0  0
  5  2  1  0  0  0  0
  5 10  1  0  0  0  0
  6  5  2  0  0  0  0
  7  6  1  0  0  0  0
  7  9  1  0  0  0  0
  8  7  1  0  0  0  0
  9 10  2  0  0  0  0
 12 11  1  0  0  0  0
 12 13  1  0  0  0  0
 13 14  1  0  0  0  0
 15 13  2  0  0  0  0
 16 15  1  0  0  0  0
 17 18  1  0  0  0  0
 17 16  2  0  0  0  0
 18 12  2  0  0  0  0
 19 16  1  0  0  0  0
 19 24  1  0  0  0  0
 20 19  2  0  0  0  0
 21 20  1  0  0  0  0
 21 22  2  0  0  0  0
 22 23  1  0  0  0  0
 23 24  2  0  0  0  0
 23 25  1  0  0  0  0
 25 27  1  0  0  0  0
 25 26  2  0  0  0  0
 28 25  2  0  0  0  0
 29  1  1  0  0  0  0
 29 37  1  6  0  0  0
 30 29  1  0  0  0  0
 31 30  2  0  0  0  0
 32 31  1  0  0  0  0
 33 34  1  0  0  0  0
 33 31  1  0  0  0  0
 34 36  2  0  0  0  0
 35 34  1  0  0  0  0
 36 30  1  0  0  0  0
 38 37  1  0  0  0  0
 38 39  1  0  0  0  0
M  END
>  <POSE>
3

>  <SCORE>
-10.964

>  <RMSD_LB_BP>
2.360

>  <RMSD_UB_BP>
5.415

$$$$
/content/1PQ6_Docking/DOCKING/CLC-0000187/CLC-0000187_output.pdbqt
 OpenBabel03072503353D

 39 42  0  0  1  0  0  0  0  0999 V2000
   17.6440   -4.5370   59.7610 N   0  0  0  0  0  0  0  0  0  0  0  0
   18.7290   -5.0300   61.1080 S   0  0  0  0  0  0  0  0  0  0  0  0
   19.9460   -5.7250   60.4880 O   0  0  0  0  0  0  0  0  0  0  0  0
   18.0300   -6.1920   61.8310 O   0  0  0  0  0  0  0  0  0  0  0  0
   19.2530   -3.7380   62.2290 C   0  0  0  0  0  0  0  0  0  0  0  0
   20.4490   -3.6830   62.9070 C   0  0  0  0  0  3  0  0  0  0  0  0
   20.4280   -2.5770   63.6660 N   0  0  0  0  0  0  0  0  0  0  0  0
   21.4820   -2.1230   64.5660 C   0  0  0  0  0  1  0  0  0  0  0  0
   19.2420   -1.9810   63.4370 C   0  0  0  0  0  3  0  0  0  0  0  0
   18.4920   -2.6730   62.5550 N   0  0  0  0  0  0  0  0  0  0  0  0
   16.5810   -5.5410   59.5420 C   0  0  0  0  0  2  0  0  0  0  0  0
   15.2110   -4.9270   59.7420 C   0  0  0  0  0  0  0  0  0  0  0  0
   14.4480   -5.1040   60.9200 C   0  0  0  0  0  0  0  0  0  0  0  0
   14.9460   -5.9500   62.0660 C   0  0  0  0  0  1  0  0  0  0  0  0
   13.1950   -4.4750   61.0350 C   0  0  0  0  0  3  0  0  0  0  0  0
   12.6620   -3.6670   60.0020 C   0  0  0  0  0  0  0  0  0  0  0  0
   13.4420   -3.5260   58.8310 C   0  0  0  0  0  3  0  0  0  0  0  0
   14.6860   -4.1420   58.7080 C   0  0  0  0  0  3  0  0  0  0  0  0
   11.3160   -2.9830   60.1430 C   0  0  0  0  0  0  0  0  0  0  0  0
   10.1920   -3.6590   60.6820 C   0  0  0  0  0  3  0  0  0  0  0  0
    8.9540   -3.0240   60.8120 C   0  0  0  0  0  3  0  0  0  0  0  0
    8.7980   -1.7010   60.4100 C   0  0  0  0  0  3  0  0  0  0  0  0
    9.8810   -1.0030   59.8790 C   0  0  0  0  0  0  0  0  0  0  0  0
   11.1240   -1.6350   59.7440 C   0  0  0  0  0  3  0  0  0  0  0  0
    9.6750    0.7020   59.3520 S   0  0  0  0  0  0  0  0  0  0  0  0
   10.7640    0.9920   58.3070 O   0  0  0  0  0  0  0  0  0  0  0  0
    8.1300    1.4370   58.7500 C   0  0  0  0  0  1  0  0  0  0  0  0
   10.2050    1.5980   60.4810 O   0  0  0  0  0  0  0  0  0  0  0  0
   18.3220   -4.0870   58.5130 C   0  0  2  0  0  3  0  0  0  0  0  0
   18.6020   -2.5740   58.4840 C   0  0  0  0  0  0  0  0  0  0  0  0
   17.7620   -1.4720   58.8000 C   0  0  0  0  0  0  0  0  0  0  0  0
   16.3460   -1.3950   59.2860 C   0  0  0  0  0  1  0  0  0  0  0  0
   18.6300   -0.0480   58.5630 S   0  0  0  0  0  0  0  0  0  0  0  0
   20.0490   -0.7660   58.0590 C   0  0  0  0  0  0  0  0  0  0  0  0
   21.2930   -0.0450   57.6610 C   0  0  0  0  0  1  0  0  0  0  0  0
   19.8800   -2.1380   58.0660 C   0  0  0  0  0  3  0  0  0  0  0  0
   17.6640   -4.7580   57.2810 C   0  0  0  0  0  2  0  0  0  0  0  0
   18.6330   -5.5120   56.3440 C   0  0  0  0  0  2  0  0  0  0  0  0
   20.0300   -5.7120   56.9320 C   0  0  0  0  0  1  0  0  0  0  0  0
  1  2  1  0  0  0  0
  2  4  2  0  0  0  0
  2  5  1  0  0  0  0
  3  2  2  0  0  0  0
  5 10  1  0  0  0  0
  5  6  2  0  0  0  0
  6  7  1  0  0  0  0
  7  8  1  0  0  0  0
  9  7  1  0  0  0  0
 10  9  2  0  0  0  0
 11 12  1  0  0  0  0
 11  1  1  0  0  0  0
 12 13  1  0  0  0  0
 13 15  2  0  0  0  0
 13 14  1  0  0  0  0
 16 19  1  0  0  0  0
 16 15  1  0  0  0  0
 17 16  2  0  0  0  0
 18 17  1  0  0  0  0
 18 12  2  0  0  0  0
 19 20  1  0  0  0  0
 20 21  2  0  0  0  0
 22 21  1  0  0  0  0
 23 22  2  0  0  0  0
 24 23  1  0  0  0  0
 24 19  2  0  0  0  0
 25 23  1  0  0  0  0
 25 28  2  0  0  0  0
 26 25  2  0  0  0  0
 27 25  1  0  0  0  0
 29 37  1  6  0  0  0
 29  1  1  0  0  0  0
 30 29  1  0  0  0  0
 30 31  2  0  0  0  0
 31 32  1  0  0  0  0
 33 31  1  0  0  0  0
 34 36  2  0  0  0  0
 34 33  1  0  0  0  0
 35 34  1  0  0  0  0
 36 30  1  0  0  0  0
 38 39  1  0  0  0  0
 38 37  1  0  0  0  0
M  END
>  <POSE>
4

>  <SCORE>
-10.692

>  <RMSD_LB_BP>
1.845

>  <RMSD_UB_BP>
4.204

$$$$
/content/1PQ6_Docking/DOCKING/CLC-0000187/CLC-0000187_output.pdbqt
 OpenBabel03072503353D

 39 42  0  0  1  0  0  0  0  0999 V2000
   17.6150   -4.5880   59.6420 N   0  0  0  0  0  0  0  0  0  0  0  0
   18.7680   -5.0360   60.9470 S   0  0  0  0  0  0  0  0  0  0  0  0
   20.0230   -5.6060   60.2760 O   0  0  0  0  0  0  0  0  0  0  0  0
   18.1840   -6.2760   61.6420 O   0  0  0  0  0  0  0  0  0  0  0  0
   19.2120   -3.7450   62.1040 C   0  0  0  0  0  0  0  0  0  0  0  0
   20.3690   -3.6780   62.8450 C   0  0  0  0  0  3  0  0  0  0  0  0
   20.2910   -2.5780   63.6100 N   0  0  0  0  0  0  0  0  0  0  0  0
   21.2880   -2.1150   64.5680 C   0  0  0  0  0  1  0  0  0  0  0  0
   19.1090   -1.9980   63.3210 C   0  0  0  0  0  3  0  0  0  0  0  0
   18.4190   -2.6940   62.3950 N   0  0  0  0  0  0  0  0  0  0  0  0
   16.5410   -5.5970   59.5140 C   0  0  0  0  0  2  0  0  0  0  0  0
   15.1800   -4.9650   59.7160 C   0  0  0  0  0  0  0  0  0  0  0  0
   14.3910   -5.1790   60.8700 C   0  0  0  0  0  0  0  0  0  0  0  0
   14.8490   -6.0870   61.9860 C   0  0  0  0  0  1  0  0  0  0  0  0
   13.1490   -4.5310   60.9900 C   0  0  0  0  0  3  0  0  0  0  0  0
   12.6520   -3.6660   59.9860 C   0  0  0  0  0  0  0  0  0  0  0  0
   13.4580   -3.4870   58.8380 C   0  0  0  0  0  3  0  0  0  0  0  0
   14.6920   -4.1230   58.7110 C   0  0  0  0  0  3  0  0  0  0  0  0
   11.3170   -2.9600   60.1330 C   0  0  0  0  0  0  0  0  0  0  0  0
   10.1900   -3.6150   60.6930 C   0  0  0  0  0  3  0  0  0  0  0  0
    8.9630   -2.9600   60.8280 C   0  0  0  0  0  3  0  0  0  0  0  0
    8.8200   -1.6400   60.4130 C   0  0  0  0  0  3  0  0  0  0  0  0
    9.9070   -0.9640   59.8610 C   0  0  0  0  0  0  0  0  0  0  0  0
   11.1400   -1.6150   59.7210 C   0  0  0  0  0  3  0  0  0  0  0  0
    9.7190    0.7370   59.3160 S   0  0  0  0  0  0  0  0  0  0  0  0
   10.8470    1.0220   58.3120 O   0  0  0  0  0  0  0  0  0  0  0  0
    8.1970    1.4660   58.6500 C   0  0  0  0  0  1  0  0  0  0  0  0
   10.2050    1.6410   60.4590 O   0  0  0  0  0  0  0  0  0  0  0  0
   18.2260   -4.1820   58.3460 C   0  0  2  0  0  3  0  0  0  0  0  0
   18.9870   -5.3240   57.6480 C   0  0  0  0  0  0  0  0  0  0  0  0
   18.6170   -6.6770   57.4200 C   0  0  0  0  0  0  0  0  0  0  0  0
   17.3750   -7.4480   57.7480 C   0  0  0  0  0  1  0  0  0  0  0  0
   19.8770   -7.4500   56.6110 S   0  0  0  0  0  0  0  0  0  0  0  0
   20.8990   -6.1340   56.5390 C   0  0  0  0  0  0  0  0  0  0  0  0
   22.2600   -6.1240   55.9290 C   0  0  0  0  0  1  0  0  0  0  0  0
   20.2800   -5.0560   57.1440 C   0  0  0  0  0  3  0  0  0  0  0  0
   18.9080   -2.7980   58.4930 C   0  0  0  0  0  2  0  0  0  0  0  0
   18.0090   -1.5830   58.1750 C   0  0  0  0  0  2  0  0  0  0  0  0
   16.9920   -1.2640   59.2720 C   0  0  0  0  0  1  0  0  0  0  0  0
  1  2  1  0  0  0  0
  2  4  2  0  0  0  0
  2  5  1  0  0  0  0
  3  2  2  0  0  0  0
  5 10  1  0  0  0  0
  5  6  2  0  0  0  0
  6  7  1  0  0  0  0
  7  8  1  0  0  0  0
  9  7  1  0  0  0  0
 10  9  2  0  0  0  0
 11  1  1  0  0  0  0
 11 12  1  0  0  0  0
 12 13  1  0  0  0  0
 13 15  2  0  0  0  0
 13 14  1  0  0  0  0
 16 19  1  0  0  0  0
 16 15  1  0  0  0  0
 17 16  2  0  0  0  0
 18 17  1  0  0  0  0
 18 12  2  0  0  0  0
 19 20  1  0  0  0  0
 20 21  2  0  0  0  0
 22 21  1  0  0  0  0
 23 22  2  0  0  0  0
 24 23  1  0  0  0  0
 24 19  2  0  0  0  0
 25 23  1  0  0  0  0
 25 28  2  0  0  0  0
 26 25  2  0  0  0  0
 27 25  1  0  0  0  0
 29 37  1  1  0  0  0
 29  1  1  0  0  0  0
 30 29  1  0  0  0  0
 31 30  2  0  0  0  0
 31 32  1  0  0  0  0
 33 31  1  0  0  0  0
 34 33  1  0  0  0  0
 34 36  2  0  0  0  0
 35 34  1  0  0  0  0
 36 30  1  0  0  0  0
 38 37  1  0  0  0  0
 38 39  1  0  0  0  0
M  END
>  <POSE>
5

>  <SCORE>
-10.537

>  <RMSD_LB_BP>
1.786

>  <RMSD_UB_BP>
4.667

$$$$
/content/1PQ6_Docking/DOCKING/CLC-0000187/CLC-0000187_output.pdbqt
 OpenBabel03072503353D

 39 42  0  0  1  0  0  0  0  0999 V2000
   17.9000   -4.4000   60.4590 N   0  0  0  0  0  0  0  0  0  0  0  0
   17.9160   -6.1430   60.9020 S   0  0  0  0  0  0  0  0  0  0  0  0
   16.5620   -6.4660   61.5450 O   0  0  0  0  0  0  0  0  0  0  0  0
   18.8780   -6.2840   62.0920 O   0  0  0  0  0  0  0  0  0  0  0  0
   18.2740   -7.3010   59.5860 C   0  0  0  0  0  0  0  0  0  0  0  0
   18.0420   -7.1060   58.2440 C   0  0  0  0  0  3  0  0  0  0  0  0
   18.4150   -8.2260   57.6060 N   0  0  0  0  0  0  0  0  0  0  0  0
   18.3340   -8.4750   56.1720 C   0  0  0  0  0  1  0  0  0  0  0  0
   18.8670   -9.0700   58.5540 C   0  0  0  0  0  3  0  0  0  0  0  0
   18.7920   -8.5290   59.7880 N   0  0  0  0  0  0  0  0  0  0  0  0
   17.2870   -4.1970   59.1290 C   0  0  0  0  0  2  0  0  0  0  0  0
   15.9850   -3.4320   59.2480 C   0  0  0  0  0  0  0  0  0  0  0  0
   14.7490   -4.0490   59.5520 C   0  0  0  0  0  0  0  0  0  0  0  0
   14.6380   -5.5400   59.7570 C   0  0  0  0  0  1  0  0  0  0  0  0
   13.5910   -3.2610   59.6700 C   0  0  0  0  0  3  0  0  0  0  0  0
   13.6160   -1.8570   59.4910 C   0  0  0  0  0  0  0  0  0  0  0  0
   14.8640   -1.2740   59.1710 C   0  0  0  0  0  3  0  0  0  0  0  0
   16.0180   -2.0460   59.0540 C   0  0  0  0  0  3  0  0  0  0  0  0
   12.3630   -1.0140   59.6350 C   0  0  0  0  0  0  0  0  0  0  0  0
   12.3860    0.3900   59.4390 C   0  0  0  0  0  3  0  0  0  0  0  0
   11.2290    1.1620   59.5720 C   0  0  0  0  0  3  0  0  0  0  0  0
   10.0180    0.5630   59.9020 C   0  0  0  0  0  3  0  0  0  0  0  0
    9.9560   -0.8160   60.0990 C   0  0  0  0  0  0  0  0  0  0  0  0
   11.1130   -1.5950   59.9700 C   0  0  0  0  0  3  0  0  0  0  0  0
    8.3940   -1.5880   60.5350 S   0  0  0  0  0  0  0  0  0  0  0  0
    8.7170   -2.8260   61.3860 O   0  0  0  0  0  0  0  0  0  0  0  0
    6.9850   -0.7460   61.3070 C   0  0  0  0  0  1  0  0  0  0  0  0
    7.8730   -2.3080   59.2820 O   0  0  0  0  0  0  0  0  0  0  0  0
   19.1830   -3.6690   60.6550 C   0  0  2  0  0  3  0  0  0  0  0  0
   19.3110   -3.0250   62.0480 C   0  0  0  0  0  0  0  0  0  0  0  0
   18.3850   -2.2460   62.7940 C   0  0  0  0  0  0  0  0  0  0  0  0
   16.9810   -1.8070   62.5080 C   0  0  0  0  0  1  0  0  0  0  0  0
   19.1030   -1.8110   64.2550 S   0  0  0  0  0  0  0  0  0  0  0  0
   20.5660   -2.5650   63.9850 C   0  0  0  0  0  0  0  0  0  0  0  0
   21.7260   -2.5700   64.9240 C   0  0  0  0  0  1  0  0  0  0  0  0
   20.5290   -3.1790   62.7470 C   0  0  0  0  0  3  0  0  0  0  0  0
   19.5080   -2.8230   59.3990 C   0  0  0  0  0  2  0  0  0  0  0  0
   19.4370   -1.2920   59.5980 C   0  0  0  0  0  2  0  0  0  0  0  0
   19.8000   -0.4890   58.3480 C   0  0  0  0  0  1  0  0  0  0  0  0
  1 29  1  0  0  0  0
  1  2  1  0  0  0  0
  2  3  2  0  0  0  0
  2  4  2  0  0  0  0
  5 10  1  0  0  0  0
  5  2  1  0  0  0  0
  6  5  2  0  0  0  0
  7  6  1  0  0  0  0
  7  9  1  0  0  0  0
  8  7  1  0  0  0  0
  9 10  2  0  0  0  0
 11 12  1  0  0  0  0
 11  1  1  0  0  0  0
 12 13  1  0  0  0  0
 13 15  2  0  0  0  0
 13 14  1  0  0  0  0
 16 19  1  0  0  0  0
 16 15  1  0  0  0  0
 17 16  2  0  0  0  0
 18 17  1  0  0  0  0
 18 12  2  0  0  0  0
 19 24  1  0  0  0  0
 20 21  1  0  0  0  0
 20 19  2  0  0  0  0
 21 22  2  0  0  0  0
 22 23  1  0  0  0  0
 23 25  1  0  0  0  0
 24 23  2  0  0  0  0
 25 27  1  0  0  0  0
 25 26  2  0  0  0  0
 28 25  2  0  0  0  0
 29 37  1  6  0  0  0
 29 30  1  0  0  0  0
 30 36  1  0  0  0  0
 30 31  2  0  0  0  0
 31 33  1  0  0  0  0
 32 31  1  0  0  0  0
 34 33  1  0  0  0  0
 34 35  1  0  0  0  0
 36 34  2  0  0  0  0
 37 38  1  0  0  0  0
 39 38  1  0  0  0  0
M  END
>  <POSE>
6

>  <SCORE>
-10.082

>  <RMSD_LB_BP>
1.422

>  <RMSD_UB_BP>
2.188

$$$$
/content/1PQ6_Docking/DOCKING/CLC-0000187/CLC-0000187_output.pdbqt
 OpenBabel03072503353D

 39 42  0  0  1  0  0  0  0  0999 V2000
   17.6570   -3.7870   59.8210 N   0  0  0  0  0  0  0  0  0  0  0  0
   18.5810   -3.4500   58.3150 S   0  0  0  0  0  0  0  0  0  0  0  0
   19.8690   -2.7240   58.7190 O   0  0  0  0  0  0  0  0  0  0  0  0
   17.8140   -2.3490   57.5670 O   0  0  0  0  0  0  0  0  0  0  0  0
   18.9580   -4.8560   57.2740 C   0  0  0  0  0  0  0  0  0  0  0  0
   20.2100   -5.2490   56.8590 C   0  0  0  0  0  3  0  0  0  0  0  0
   20.0500   -6.3200   56.0660 N   0  0  0  0  0  0  0  0  0  0  0  0
   21.1060   -7.0620   55.3880 C   0  0  0  0  0  1  0  0  0  0  0  0
   18.7250   -6.5610   56.0170 C   0  0  0  0  0  3  0  0  0  0  0  0
   18.0230   -5.6740   56.7520 N   0  0  0  0  0  0  0  0  0  0  0  0
   17.0620   -2.5480   60.3660 C   0  0  0  0  0  2  0  0  0  0  0  0
   15.5600   -2.5410   60.1710 C   0  0  0  0  0  0  0  0  0  0  0  0
   14.7250   -3.6170   60.5520 C   0  0  0  0  0  0  0  0  0  0  0  0
   15.2870   -4.8760   61.1660 C   0  0  0  0  0  1  0  0  0  0  0  0
   13.3360   -3.5180   60.3600 C   0  0  0  0  0  3  0  0  0  0  0  0
   12.7360   -2.3690   59.7900 C   0  0  0  0  0  0  0  0  0  0  0  0
   13.6000   -1.3190   59.4040 C   0  0  0  0  0  3  0  0  0  0  0  0
   14.9790   -1.4070   59.5930 C   0  0  0  0  0  3  0  0  0  0  0  0
   11.2340   -2.2670   59.6000 C   0  0  0  0  0  0  0  0  0  0  0  0
   10.4070   -3.4200   59.5930 C   0  0  0  0  0  3  0  0  0  0  0  0
    9.0240   -3.3200   59.4200 C   0  0  0  0  0  3  0  0  0  0  0  0
    8.4240   -2.0770   59.2510 C   0  0  0  0  0  3  0  0  0  0  0  0
    9.2040   -0.9220   59.2560 C   0  0  0  0  0  0  0  0  0  0  0  0
   10.5920   -1.0150   59.4270 C   0  0  0  0  0  3  0  0  0  0  0  0
    8.4300    0.6820   59.0270 S   0  0  0  0  0  0  0  0  0  0  0  0
    9.0370    1.6360   60.0680 O   0  0  0  0  0  0  0  0  0  0  0  0
    8.3230    1.5830   57.4570 C   0  0  0  0  0  1  0  0  0  0  0  0
    7.0100    0.5930   59.6080 O   0  0  0  0  0  0  0  0  0  0  0  0
   18.3540   -4.6250   60.8360 C   0  0  2  0  0  3  0  0  0  0  0  0
   19.0690   -3.7990   61.9210 C   0  0  0  0  0  0  0  0  0  0  0  0
   18.5610   -2.8400   62.8380 C   0  0  0  0  0  0  0  0  0  0  0  0
   17.1760   -2.3230   63.0860 C   0  0  0  0  0  1  0  0  0  0  0  0
   19.8360   -2.2620   63.7750 S   0  0  0  0  0  0  0  0  0  0  0  0
   21.0330   -3.1760   63.0590 C   0  0  0  0  0  0  0  0  0  0  0  0
   22.4800   -3.1490   63.4210 C   0  0  0  0  0  1  0  0  0  0  0  0
   20.4650   -3.9580   62.0700 C   0  0  0  0  0  3  0  0  0  0  0  0
   19.1180   -5.7780   60.1370 C   0  0  0  0  0  2  0  0  0  0  0  0
   18.3550   -7.1190   60.0530 C   0  0  0  0  0  2  0  0  0  0  0  0
   19.1970   -8.2750   59.5100 C   0  0  0  0  0  1  0  0  0  0  0  0
  1 11  1  0  0  0  0
  1 29  1  0  0  0  0
  2  3  2  0  0  0  0
  2  1  1  0  0  0  0
  4  2  2  0  0  0  0
  5  2  1  0  0  0  0
  6  5  2  0  0  0  0
  7  6  1  0  0  0  0
  8  7  1  0  0  0  0
  9  7  1  0  0  0  0
  9 10  2  0  0  0  0
 10  5  1  0  0  0  0
 12 11  1  0  0  0  0
 12 13  1  0  0  0  0
 13 14  1  0  0  0  0
 15 13  2  0  0  0  0
 16 15  1  0  0  0  0
 17 18  1  0  0  0  0
 17 16  2  0  0  0  0
 18 12  2  0  0  0  0
 19 16  1  0  0  0  0
 20 19  1  0  0  0  0
 21 20  2  0  0  0  0
 22 23  2  0  0  0  0
 22 21  1  0  0  0  0
 23 24  1  0  0  0  0
 24 19  2  0  0  0  0
 25 23  1  0  0  0  0
 25 28  2  0  0  0  0
 25 26  2  0  0  0  0
 27 25  1  0  0  0  0
 29 37  1  6  0  0  0
 29 30  1  0  0  0  0
 30 36  1  0  0  0  0
 30 31  2  0  0  0  0
 31 32  1  0  0  0  0
 31 33  1  0  0  0  0
 34 35  1  0  0  0  0
 34 33  1  0  0  0  0
 36 34  2  0  0  0  0
 38 37  1  0  0  0  0
 39 38  1  0  0  0  0
M  END
>  <POSE>
7

>  <SCORE>
-10.014

>  <RMSD_LB_BP>
2.013

>  <RMSD_UB_BP>
2.772

$$$$
/content/1PQ6_Docking/DOCKING/CLC-0000187/CLC-0000187_output.pdbqt
 OpenBabel03072503353D

 39 42  0  0  1  0  0  0  0  0999 V2000
   17.2140   -4.6050   60.5580 N   0  0  0  0  0  0  0  0  0  0  0  0
   18.6690   -5.6570   60.4590 S   0  0  0  0  0  0  0  0  0  0  0  0
   18.5400   -6.7240   61.5510 O   0  0  0  0  0  0  0  0  0  0  0  0
   19.8520   -4.8190   60.9670 O   0  0  0  0  0  0  0  0  0  0  0  0
   18.9990   -6.4220   58.8750 C   0  0  0  0  0  0  0  0  0  0  0  0
   19.7710   -5.9000   57.8630 C   0  0  0  0  0  3  0  0  0  0  0  0
   19.7290   -6.7660   56.8390 N   0  0  0  0  0  0  0  0  0  0  0  0
   20.3900   -6.6160   55.5490 C   0  0  0  0  0  1  0  0  0  0  0  0
   18.9490   -7.7900   57.2400 C   0  0  0  0  0  3  0  0  0  0  0  0
   18.4820   -7.6080   58.4930 N   0  0  0  0  0  0  0  0  0  0  0  0
   16.4630   -4.6180   59.2830 C   0  0  0  0  0  2  0  0  0  0  0  0
   15.0260   -4.1930   59.5010 C   0  0  0  0  0  0  0  0  0  0  0  0
   14.2440   -4.6380   60.5930 C   0  0  0  0  0  0  0  0  0  0  0  0
   14.7910   -5.6010   61.6180 C   0  0  0  0  0  1  0  0  0  0  0  0
   12.9250   -4.1730   60.7350 C   0  0  0  0  0  3  0  0  0  0  0  0
   12.3420   -3.2690   59.8140 C   0  0  0  0  0  0  0  0  0  0  0  0
   13.1450   -2.8580   58.7260 C   0  0  0  0  0  3  0  0  0  0  0  0
   14.4550   -3.3110   58.5760 C   0  0  0  0  0  3  0  0  0  0  0  0
   10.9230   -2.7630   59.9860 C   0  0  0  0  0  0  0  0  0  0  0  0
    9.9150   -3.5660   60.5790 C   0  0  0  0  0  3  0  0  0  0  0  0
    8.6090   -3.0950   60.7370 C   0  0  0  0  0  3  0  0  0  0  0  0
    8.2670   -1.8150   60.3120 C   0  0  0  0  0  3  0  0  0  0  0  0
    9.2320   -0.9960   59.7280 C   0  0  0  0  0  0  0  0  0  0  0  0
   10.5430   -1.4630   59.5650 C   0  0  0  0  0  3  0  0  0  0  0  0
    8.7880    0.6530   59.1710 S   0  0  0  0  0  0  0  0  0  0  0  0
    9.5610    0.9200   57.8700 O   0  0  0  0  0  0  0  0  0  0  0  0
    7.0950    1.2620   58.9360 C   0  0  0  0  0  1  0  0  0  0  0  0
    9.5200    1.6560   60.0750 O   0  0  0  0  0  0  0  0  0  0  0  0
   17.4350   -3.2430   61.1200 C   0  0  2  0  0  3  0  0  0  0  0  0
   17.7990   -2.1950   60.0520 C   0  0  0  0  0  0  0  0  0  0  0  0
   17.0070   -1.1860   59.4410 C   0  0  0  0  0  0  0  0  0  0  0  0
   15.5770   -0.7760   59.6310 C   0  0  0  0  0  1  0  0  0  0  0  0
   17.9610   -0.3520   58.3310 S   0  0  0  0  0  0  0  0  0  0  0  0
   19.3590   -1.2270   58.5800 C   0  0  0  0  0  0  0  0  0  0  0  0
   20.6570   -1.0090   57.8780 C   0  0  0  0  0  1  0  0  0  0  0  0
   19.1150   -2.1920   59.5400 C   0  0  0  0  0  3  0  0  0  0  0  0
   18.2870   -3.3350   62.4110 C   0  0  0  0  0  2  0  0  0  0  0  0
   18.5220   -1.9950   63.1430 C   0  0  0  0  0  2  0  0  0  0  0  0
   19.6260   -2.0540   64.1990 C   0  0  0  0  0  1  0  0  0  0  0  0
  1 29  1  0  0  0  0
  2  1  1  0  0  0  0
  2  4  2  0  0  0  0
  2  3  2  0  0  0  0
  5  2  1  0  0  0  0
  6  5  2  0  0  0  0
  7  9  1  0  0  0  0
  7  6  1  0  0  0  0
  8  7  1  0  0  0  0
  9 10  2  0  0  0  0
 10  5  1  0  0  0  0
 11 12  1  0  0  0  0
 11  1  1  0  0  0  0
 12 13  1  0  0  0  0
 13 15  2  0  0  0  0
 13 14  1  0  0  0  0
 16 19  1  0  0  0  0
 16 15  1  0  0  0  0
 17 16  2  0  0  0  0
 18 17  1  0  0  0  0
 18 12  2  0  0  0  0
 19 20  1  0  0  0  0
 20 21  2  0  0  0  0
 22 21  1  0  0  0  0
 23 22  2  0  0  0  0
 24 23  1  0  0  0  0
 24 19  2  0  0  0  0
 25 23  1  0  0  0  0
 25 28  2  0  0  0  0
 26 25  2  0  0  0  0
 27 25  1  0  0  0  0
 29 37  1  1  0  0  0
 30 29  1  0  0  0  0
 31 32  1  0  0  0  0
 31 30  2  0  0  0  0
 33 34  1  0  0  0  0
 33 31  1  0  0  0  0
 34 36  2  0  0  0  0
 35 34  1  0  0  0  0
 36 30  1  0  0  0  0
 37 38  1  0  0  0  0
 38 39  1  0  0  0  0
M  END
>  <POSE>
8

>  <SCORE>
-9.527

>  <RMSD_LB_BP>
1.587

>  <RMSD_UB_BP>
2.905

$$$$
/content/1PQ6_Docking/DOCKING/CLC-0000187/CLC-0000187_output.pdbqt
 OpenBabel03072503353D

 39 42  0  0  1  0  0  0  0  0999 V2000
   17.8000   -4.4500   59.9520 N   0  0  0  0  0  0  0  0  0  0  0  0
   19.0360   -4.8480   61.1960 S   0  0  0  0  0  0  0  0  0  0  0  0
   20.3070   -5.2840   60.4590 O   0  0  0  0  0  0  0  0  0  0  0  0
   18.5840   -6.1580   61.8600 O   0  0  0  0  0  0  0  0  0  0  0  0
   19.4150   -3.5680   62.3880 C   0  0  0  0  0  0  0  0  0  0  0  0
   20.5750   -3.4530   63.1190 C   0  0  0  0  0  3  0  0  0  0  0  0
   20.4410   -2.3840   63.9180 N   0  0  0  0  0  0  0  0  0  0  0  0
   21.4200   -1.8910   64.8790 C   0  0  0  0  0  1  0  0  0  0  0  0
   19.2220   -1.8690   63.6610 C   0  0  0  0  0  3  0  0  0  0  0  0
   18.5630   -2.5770   62.7210 N   0  0  0  0  0  0  0  0  0  0  0  0
   16.5100   -5.1070   60.2570 C   0  0  0  0  0  2  0  0  0  0  0  0
   15.3570   -4.1420   60.0750 C   0  0  0  0  0  0  0  0  0  0  0  0
   14.0350   -4.4280   60.4880 C   0  0  0  0  0  0  0  0  0  0  0  0
   13.6730   -5.7470   61.1280 C   0  0  0  0  0  1  0  0  0  0  0  0
   13.0280   -3.4640   60.3060 C   0  0  0  0  0  3  0  0  0  0  0  0
   13.2910   -2.2050   59.7140 C   0  0  0  0  0  0  0  0  0  0  0  0
   14.6190   -1.9580   59.2960 C   0  0  0  0  0  3  0  0  0  0  0  0
   15.6250   -2.9060   59.4750 C   0  0  0  0  0  3  0  0  0  0  0  0
   12.1990   -1.1670   59.5350 C   0  0  0  0  0  0  0  0  0  0  0  0
   12.4910    0.1470   59.0890 C   0  0  0  0  0  3  0  0  0  0  0  0
   11.4820    1.1000   58.9250 C   0  0  0  0  0  3  0  0  0  0  0  0
   10.1570    0.7750   59.1970 C   0  0  0  0  0  3  0  0  0  0  0  0
    9.8320   -0.5080   59.6350 C   0  0  0  0  0  0  0  0  0  0  0  0
   10.8390   -1.4670   59.8040 C   0  0  0  0  0  3  0  0  0  0  0  0
    8.1220   -0.9240   59.9960 S   0  0  0  0  0  0  0  0  0  0  0  0
    7.7810   -2.1910   59.1960 O   0  0  0  0  0  0  0  0  0  0  0  0
    7.4160   -1.1170   61.6560 C   0  0  0  0  0  1  0  0  0  0  0  0
    7.2370    0.0700   59.2290 O   0  0  0  0  0  0  0  0  0  0  0  0
   18.2350   -4.5930   58.5350 C   0  0  2  0  0  3  0  0  0  0  0  0
   18.8360   -5.9750   58.2190 C   0  0  0  0  0  0  0  0  0  0  0  0
   19.9420   -6.3380   57.4030 C   0  0  0  0  0  0  0  0  0  0  0  0
   20.9080   -5.5220   56.6000 C   0  0  0  0  0  1  0  0  0  0  0  0
   20.1090   -8.0140   57.4380 S   0  0  0  0  0  0  0  0  0  0  0  0
   18.8170   -8.3180   58.4480 C   0  0  0  0  0  0  0  0  0  0  0  0
   18.3710   -9.6660   58.9070 C   0  0  0  0  0  1  0  0  0  0  0  0
   18.2240   -7.1150   58.7870 C   0  0  0  0  0  3  0  0  0  0  0  0
   18.9920   -3.3190   58.0820 C   0  0  0  0  0  2  0  0  0  0  0  0
   18.8370   -2.0950   59.0120 C   0  0  0  0  0  2  0  0  0  0  0  0
   19.6450   -0.8750   58.5660 C   0  0  0  0  0  1  0  0  0  0  0  0
  1 11  1  0  0  0  0
  1  2  1  0  0  0  0
  2  4  2  0  0  0  0
  2  5  1  0  0  0  0
  3  2  2  0  0  0  0
  5 10  1  0  0  0  0
  5  6  2  0  0  0  0
  6  7  1  0  0  0  0
  7  8  1  0  0  0  0
  9  7  1  0  0  0  0
 10  9  2  0  0  0  0
 12 11  1  0  0  0  0
 12 13  1  0  0  0  0
 13 14  1  0  0  0  0
 15 13  2  0  0  0  0
 16 15  1  0  0  0  0
 17 18  1  0  0  0  0
 17 16  2  0  0  0  0
 18 12  2  0  0  0  0
 19 16  1  0  0  0  0
 19 24  1  0  0  0  0
 20 19  2  0  0  0  0
 21 20  1  0  0  0  0
 21 22  2  0  0  0  0
 22 23  1  0  0  0  0
 23 24  2  0  0  0  0
 23 25  1  0  0  0  0
 25 27  1  0  0  0  0
 26 25  2  0  0  0  0
 28 25  2  0  0  0  0
 29 37  1  1  0  0  0
 29  1  1  0  0  0  0
 30 29  1  0  0  0  0
 30 36  1  0  0  0  0
 31 33  1  0  0  0  0
 31 30  2  0  0  0  0
 32 31  1  0  0  0  0
 33 34  1  0  0  0  0
 34 36  2  0  0  0  0
 34 35  1  0  0  0  0
 37 38  1  0  0  0  0
 39 38  1  0  0  0  0
M  END
>  <POSE>
9

>  <SCORE>
-9.205

>  <RMSD_LB_BP>
1.859

>  <RMSD_UB_BP>
4.966

$$$$
