/content/4EXS_VS/DOCKING/CLC-0000187/CLC-0000187_output.pdbqt
 OpenBabel03062504413D

 39 42  0  0  1  0  0  0  0  0999 V2000
   54.6120   17.2010   -3.7350 N   0  0  0  0  0  0  0  0  0  0  0  0
   55.0980   18.8060   -3.0910 S   0  0  0  0  0  0  0  0  0  0  0  0
   54.7340   19.8570   -4.1500 O   0  0  0  0  0  0  0  0  0  0  0  0
   56.6350   18.8390   -3.1120 O   0  0  0  0  0  0  0  0  0  0  0  0
   54.4320   19.2290   -1.4870 C   0  0  0  0  0  0  0  0  0  0  0  0
   53.4250   20.1340   -1.2400 C   0  0  0  0  0  3  0  0  0  0  0  0
   53.2540   20.1900    0.0910 N   0  0  0  0  0  0  0  0  0  0  0  0
   52.3070   21.0230    0.8210 C   0  0  0  0  0  1  0  0  0  0  0  0
   54.1420   19.3290    0.6230 C   0  0  0  0  0  3  0  0  0  0  0  0
   54.8860   18.7200   -0.3240 N   0  0  0  0  0  0  0  0  0  0  0  0
   53.9750   16.3630   -2.6910 C   0  0  0  0  0  2  0  0  0  0  0  0
   52.4840   16.1980   -2.9330 C   0  0  0  0  0  0  0  0  0  0  0  0
   51.7650   15.0400   -2.5530 C   0  0  0  0  0  0  0  0  0  0  0  0
   52.3990   13.8780   -1.8370 C   0  0  0  0  0  1  0  0  0  0  0  0
   50.3920   14.9470   -2.8450 C   0  0  0  0  0  3  0  0  0  0  0  0
   49.6930   15.9830   -3.5080 C   0  0  0  0  0  0  0  0  0  0  0  0
   50.4350   17.1330   -3.8600 C   0  0  0  0  0  3  0  0  0  0  0  0
   51.7950   17.2350   -3.5760 C   0  0  0  0  0  3  0  0  0  0  0  0
   48.2150   15.8660   -3.8310 C   0  0  0  0  0  0  0  0  0  0  0  0
   47.6630   14.6640   -4.3410 C   0  0  0  0  0  3  0  0  0  0  0  0
   46.3020   14.5580   -4.6370 C   0  0  0  0  0  3  0  0  0  0  0  0
   45.4520   15.6410   -4.4360 C   0  0  0  0  0  3  0  0  0  0  0  0
   45.9580   16.8380   -3.9320 C   0  0  0  0  0  0  0  0  0  0  0  0
   47.3230   16.9510   -3.6350 C   0  0  0  0  0  3  0  0  0  0  0  0
   44.8680   18.2430   -3.6820 S   0  0  0  0  0  0  0  0  0  0  0  0
   45.2870   19.3280   -4.6850 O   0  0  0  0  0  0  0  0  0  0  0  0
   43.0550   18.1760   -3.6760 C   0  0  0  0  0  1  0  0  0  0  0  0
   45.3110   18.9480   -2.3900 O   0  0  0  0  0  0  0  0  0  0  0  0
   55.6870   16.5140   -4.5020 C   0  0  2  0  0  3  0  0  0  0  0  0
   55.5620   16.8880   -5.9740 C   0  0  0  0  0  0  0  0  0  0  0  0
   56.6740   17.0330   -6.8200 C   0  0  0  0  0  0  0  0  0  0  0  0
   58.1210   16.8440   -6.4760 C   0  0  0  0  0  1  0  0  0  0  0  0
   56.1470   17.4530   -8.3600 S   0  0  0  0  0  0  0  0  0  0  0  0
   54.5120   17.4630   -7.9860 C   0  0  0  0  0  0  0  0  0  0  0  0
   53.4110   17.7790   -8.9410 C   0  0  0  0  0  1  0  0  0  0  0  0
   54.3470   17.1350   -6.6470 C   0  0  0  0  0  3  0  0  0  0  0  0
   55.7450   14.9840   -4.2170 C   0  0  0  0  0  2  0  0  0  0  0  0
   57.1030   14.5430   -3.6400 C   0  0  0  0  0  2  0  0  0  0  0  0
   57.6320   15.5700   -2.6440 C   0  0  0  0  0  1  0  0  0  0  0  0
  1  2  1  0  0  0  0
  1 11  1  0  0  0  0
  2  5  1  0  0  0  0
  3  2  2  0  0  0  0
  4  2  2  0  0  0  0
  5  6  2  0  0  0  0
  5 10  1  0  0  0  0
  6  7  1  0  0  0  0
  7  9  1  0  0  0  0
  7  8  1  0  0  0  0
 10  9  2  0  0  0  0
 12 11  1  0  0  0  0
 12 13  1  0  0  0  0
 13 14  1  0  0  0  0
 15 13  2  0  0  0  0
 16 15  1  0  0  0  0
 17 18  1  0  0  0  0
 17 16  2  0  0  0  0
 18 12  2  0  0  0  0
 19 24  1  0  0  0  0
 19 16  1  0  0  0  0
 20 19  2  0  0  0  0
 21 22  2  0  0  0  0
 21 20  1  0  0  0  0
 22 23  1  0  0  0  0
 23 25  1  0  0  0  0
 23 24  2  0  0  0  0
 25 27  1  0  0  0  0
 25 28  2  0  0  0  0
 26 25  2  0  0  0  0
 29 37  1  6  0  0  0
 29  1  1  0  0  0  0
 30 29  1  0  0  0  0
 31 32  1  0  0  0  0
 31 30  2  0  0  0  0
 33 34  1  0  0  0  0
 33 31  1  0  0  0  0
 34 36  2  0  0  0  0
 35 34  1  0  0  0  0
 36 30  1  0  0  0  0
 37 38  1  0  0  0  0
 38 39  1  0  0  0  0
M  END
>  <POSE>
1

>  <SCORE>
-7.466

>  <RMSD_LB_BP>
0.000

>  <RMSD_UB_BP>
0.000

$$$$
/content/4EXS_VS/DOCKING/CLC-0000187/CLC-0000187_output.pdbqt
 OpenBabel03062504413D

 39 42  0  0  1  0  0  0  0  0999 V2000
   54.7210   17.3650   -3.6520 N   0  0  0  0  0  0  0  0  0  0  0  0
   55.3150   18.9370   -3.0180 S   0  0  0  0  0  0  0  0  0  0  0  0
   56.7390   18.7110   -2.4870 O   0  0  0  0  0  0  0  0  0  0  0  0
   54.5260   19.2160   -1.7290 O   0  0  0  0  0  0  0  0  0  0  0  0
   55.2490   20.3070   -4.1650 C   0  0  0  0  0  0  0  0  0  0  0  0
   56.0040   20.4450   -5.3080 C   0  0  0  0  0  3  0  0  0  0  0  0
   55.6850   21.6270   -5.8590 N   0  0  0  0  0  0  0  0  0  0  0  0
   56.2400   22.2090   -7.0740 C   0  0  0  0  0  1  0  0  0  0  0  0
   54.7530   22.1790   -5.0580 C   0  0  0  0  0  3  0  0  0  0  0  0
   54.4640   21.3900   -4.0020 N   0  0  0  0  0  0  0  0  0  0  0  0
   54.0760   16.5560   -2.5910 C   0  0  0  0  0  2  0  0  0  0  0  0
   52.5930   16.3600   -2.8540 C   0  0  0  0  0  0  0  0  0  0  0  0
   51.9160   15.1460   -2.5870 C   0  0  0  0  0  0  0  0  0  0  0  0
   52.5910   13.9460   -1.9800 C   0  0  0  0  0  1  0  0  0  0  0  0
   50.5480   15.0310   -2.8940 C   0  0  0  0  0  3  0  0  0  0  0  0
   49.8120   16.0980   -3.4620 C   0  0  0  0  0  0  0  0  0  0  0  0
   50.5120   17.3010   -3.7020 C   0  0  0  0  0  3  0  0  0  0  0  0
   51.8670   17.4260   -3.4020 C   0  0  0  0  0  3  0  0  0  0  0  0
   48.3410   15.9570   -3.8020 C   0  0  0  0  0  0  0  0  0  0  0  0
   47.8160   14.7520   -4.3320 C   0  0  0  0  0  3  0  0  0  0  0  0
   46.4600   14.6240   -4.6440 C   0  0  0  0  0  3  0  0  0  0  0  0
   45.5880   15.6890   -4.4390 C   0  0  0  0  0  3  0  0  0  0  0  0
   46.0670   16.8890   -3.9160 C   0  0  0  0  0  0  0  0  0  0  0  0
   47.4260   17.0230   -3.6030 C   0  0  0  0  0  3  0  0  0  0  0  0
   44.9480   18.2700   -3.6610 S   0  0  0  0  0  0  0  0  0  0  0  0
   45.3600   19.3760   -4.6450 O   0  0  0  0  0  0  0  0  0  0  0  0
   43.1370   18.1700   -3.6790 C   0  0  0  0  0  1  0  0  0  0  0  0
   45.3630   18.9670   -2.3560 O   0  0  0  0  0  0  0  0  0  0  0  0
   55.7300   16.6250   -4.4590 C   0  0  2  0  0  3  0  0  0  0  0  0
   55.5100   16.9370   -5.9340 C   0  0  0  0  0  0  0  0  0  0  0  0
   56.5670   17.0630   -6.8520 C   0  0  0  0  0  0  0  0  0  0  0  0
   58.0340   16.9070   -6.5900 C   0  0  0  0  0  1  0  0  0  0  0  0
   55.9410   17.4130   -8.3730 S   0  0  0  0  0  0  0  0  0  0  0  0
   54.3320   17.4160   -7.8990 C   0  0  0  0  0  0  0  0  0  0  0  0
   53.1700   17.6790   -8.7970 C   0  0  0  0  0  1  0  0  0  0  0  0
   54.2530   17.1410   -6.5410 C   0  0  0  0  0  3  0  0  0  0  0  0
   55.7840   15.1080   -4.1110 C   0  0  0  0  0  2  0  0  0  0  0  0
   57.2220   14.6100   -3.8710 C   0  0  0  0  0  2  0  0  0  0  0  0
   57.8960   15.4030   -2.7550 C   0  0  0  0  0  1  0  0  0  0  0  0
  1  2  1  0  0  0  0
  1 11  1  0  0  0  0
  2  3  2  0  0  0  0
  2  4  2  0  0  0  0
  5 10  1  0  0  0  0
  5  2  1  0  0  0  0
  6  5  2  0  0  0  0
  7  6  1  0  0  0  0
  7  9  1  0  0  0  0
  8  7  1  0  0  0  0
  9 10  2  0  0  0  0
 12 11  1  0  0  0  0
 12 13  1  0  0  0  0
 13 14  1  0  0  0  0
 15 13  2  0  0  0  0
 16 15  1  0  0  0  0
 17 16  2  0  0  0  0
 17 18  1  0  0  0  0
 18 12  2  0  0  0  0
 19 24  1  0  0  0  0
 19 16  1  0  0  0  0
 20 19  2  0  0  0  0
 21 22  2  0  0  0  0
 21 20  1  0  0  0  0
 22 23  1  0  0  0  0
 23 25  1  0  0  0  0
 23 24  2  0  0  0  0
 25 28  2  0  0  0  0
 26 25  2  0  0  0  0
 27 25  1  0  0  0  0
 29 37  1  6  0  0  0
 29  1  1  0  0  0  0
 30 29  1  0  0  0  0
 31 32  1  0  0  0  0
 31 30  2  0  0  0  0
 33 34  1  0  0  0  0
 33 31  1  0  0  0  0
 34 36  2  0  0  0  0
 35 34  1  0  0  0  0
 36 30  1  0  0  0  0
 37 38  1  0  0  0  0
 38 39  1  0  0  0  0
M  END
>  <POSE>
2

>  <SCORE>
-7.239

>  <RMSD_LB_BP>
1.754

>  <RMSD_UB_BP>
2.440

$$$$
/content/4EXS_VS/DOCKING/CLC-0000187/CLC-0000187_output.pdbqt
 OpenBabel03062504413D

 39 42  0  0  1  0  0  0  0  0999 V2000
   55.3730   16.4920   -4.0440 N   0  0  0  0  0  0  0  0  0  0  0  0
   56.2790   16.3960   -5.5920 S   0  0  0  0  0  0  0  0  0  0  0  0
   56.4750   14.9070   -5.9190 O   0  0  0  0  0  0  0  0  0  0  0  0
   57.7140   16.8550   -5.2890 O   0  0  0  0  0  0  0  0  0  0  0  0
   55.5580   17.2820   -6.9660 C   0  0  0  0  0  0  0  0  0  0  0  0
   55.7730   18.6050   -7.2810 C   0  0  0  0  0  3  0  0  0  0  0  0
   55.0150   18.8910   -8.3520 N   0  0  0  0  0  0  0  0  0  0  0  0
   54.9040   20.1740   -9.0330 C   0  0  0  0  0  1  0  0  0  0  0  0
   54.3660   17.7540   -8.6700 C   0  0  0  0  0  3  0  0  0  0  0  0
   54.6770   16.7430   -7.8320 N   0  0  0  0  0  0  0  0  0  0  0  0
   54.5760   17.7380   -3.9540 C   0  0  0  0  0  2  0  0  0  0  0  0
   53.0840   17.4520   -3.9340 C   0  0  0  0  0  0  0  0  0  0  0  0
   52.2050   18.0080   -2.9740 C   0  0  0  0  0  0  0  0  0  0  0  0
   52.6570   18.9680   -1.9060 C   0  0  0  0  0  1  0  0  0  0  0  0
   50.8420   17.6650   -2.9980 C   0  0  0  0  0  3  0  0  0  0  0  0
   50.3070   16.7780   -3.9620 C   0  0  0  0  0  0  0  0  0  0  0  0
   51.2060   16.2520   -4.9160 C   0  0  0  0  0  3  0  0  0  0  0  0
   52.5590   16.5850   -4.9010 C   0  0  0  0  0  3  0  0  0  0  0  0
   48.8370   16.4040   -3.9700 C   0  0  0  0  0  0  0  0  0  0  0  0
   48.4170   15.0600   -4.1390 C   0  0  0  0  0  3  0  0  0  0  0  0
   47.0620   14.7180   -4.1460 C   0  0  0  0  0  3  0  0  0  0  0  0
   46.0880   15.6980   -3.9860 C   0  0  0  0  0  3  0  0  0  0  0  0
   46.4630   17.0300   -3.8140 C   0  0  0  0  0  0  0  0  0  0  0  0
   47.8200   17.3790   -3.8070 C   0  0  0  0  0  3  0  0  0  0  0  0
   45.2100   18.3000   -3.6180 S   0  0  0  0  0  0  0  0  0  0  0  0
   45.5710   19.4460   -4.5760 O   0  0  0  0  0  0  0  0  0  0  0  0
   43.4190   18.0350   -3.7350 C   0  0  0  0  0  1  0  0  0  0  0  0
   45.4870   19.0230   -2.2900 O   0  0  0  0  0  0  0  0  0  0  0  0
   56.2080   16.2110   -2.8440 C   0  0  2  0  0  3  0  0  0  0  0  0
   55.8260   14.8460   -2.2840 C   0  0  0  0  0  0  0  0  0  0  0  0
   56.7750   13.9230   -1.8130 C   0  0  0  0  0  0  0  0  0  0  0  0
   58.2640   14.0880   -1.7500 C   0  0  0  0  0  1  0  0  0  0  0  0
   55.9840   12.5380   -1.2810 S   0  0  0  0  0  0  0  0  0  0  0  0
   54.4360   13.0760   -1.6390 C   0  0  0  0  0  0  0  0  0  0  0  0
   53.1810   12.3020   -1.4150 C   0  0  0  0  0  1  0  0  0  0  0  0
   54.5090   14.3520   -2.1800 C   0  0  0  0  0  3  0  0  0  0  0  0
   56.1850   17.3740   -1.8090 C   0  0  0  0  0  2  0  0  0  0  0  0
   57.5990   17.8150   -1.3870 C   0  0  0  0  0  2  0  0  0  0  0  0
   57.8980   17.3910    0.0480 C   0  0  0  0  0  1  0  0  0  0  0  0
  1 11  1  0  0  0  0
  1 29  1  0  0  0  0
  2  4  2  0  0  0  0
  2  1  1  0  0  0  0
  3  2  2  0  0  0  0
  5  2  1  0  0  0  0
  6  5  2  0  0  0  0
  7  6  1  0  0  0  0
  8  7  1  0  0  0  0
  9  7  1  0  0  0  0
  9 10  2  0  0  0  0
 10  5  1  0  0  0  0
 11 12  1  0  0  0  0
 12 13  1  0  0  0  0
 13 14  1  0  0  0  0
 15 13  2  0  0  0  0
 16 15  1  0  0  0  0
 17 18  1  0  0  0  0
 17 16  2  0  0  0  0
 18 12  2  0  0  0  0
 19 16  1  0  0  0  0
 19 24  1  0  0  0  0
 20 19  2  0  0  0  0
 21 20  1  0  0  0  0
 21 22  2  0  0  0  0
 22 23  1  0  0  0  0
 23 24  2  0  0  0  0
 23 25  1  0  0  0  0
 25 28  2  0  0  0  0
 26 25  2  0  0  0  0
 27 25  1  0  0  0  0
 29 30  1  0  0  0  0
 29 37  1  1  0  0  0
 30 36  1  0  0  0  0
 30 31  2  0  0  0  0
 31 32  1  0  0  0  0
 31 33  1  0  0  0  0
 34 35  1  0  0  0  0
 34 33  1  0  0  0  0
 36 34  2  0  0  0  0
 37 38  1  0  0  0  0
 38 39  1  0  0  0  0
M  END
>  <POSE>
3

>  <SCORE>
-7.031

>  <RMSD_LB_BP>
2.314

>  <RMSD_UB_BP>
4.795

$$$$
/content/4EXS_VS/DOCKING/CLC-0000187/CLC-0000187_output.pdbqt
 OpenBabel03062504413D

 39 42  0  0  1  0  0  0  0  0999 V2000
   54.9020   18.6810   -4.1460 N   0  0  0  0  0  0  0  0  0  0  0  0
   55.3620   20.3980   -3.8920 S   0  0  0  0  0  0  0  0  0  0  0  0
   55.4090   20.6430   -2.3750 O   0  0  0  0  0  0  0  0  0  0  0  0
   54.1530   21.2440   -4.3220 O   0  0  0  0  0  0  0  0  0  0  0  0
   56.8750   20.9190   -4.6890 C   0  0  0  0  0  0  0  0  0  0  0  0
   58.0720   21.1840   -4.0640 C   0  0  0  0  0  3  0  0  0  0  0  0
   58.9370   21.5860   -5.0090 N   0  0  0  0  0  0  0  0  0  0  0  0
   60.3250   21.9880   -4.8170 C   0  0  0  0  0  1  0  0  0  0  0  0
   58.2650   21.5550   -6.1750 C   0  0  0  0  0  3  0  0  0  0  0  0
   56.9880   21.1500   -6.0120 N   0  0  0  0  0  0  0  0  0  0  0  0
   54.2930   18.0920   -2.9300 C   0  0  0  0  0  2  0  0  0  0  0  0
   52.8290   17.7460   -3.1450 C   0  0  0  0  0  0  0  0  0  0  0  0
   51.7700   18.4730   -2.5510 C   0  0  0  0  0  0  0  0  0  0  0  0
   51.9900   19.6830   -1.6830 C   0  0  0  0  0  1  0  0  0  0  0  0
   50.4410   18.0680   -2.7680 C   0  0  0  0  0  3  0  0  0  0  0  0
   50.1180   16.9490   -3.5720 C   0  0  0  0  0  0  0  0  0  0  0  0
   51.1950   16.2540   -4.1640 C   0  0  0  0  0  3  0  0  0  0  0  0
   52.5160   16.6460   -3.9550 C   0  0  0  0  0  3  0  0  0  0  0  0
   48.6810   16.5130   -3.7870 C   0  0  0  0  0  0  0  0  0  0  0  0
   48.3600   15.1820   -4.1590 C   0  0  0  0  0  3  0  0  0  0  0  0
   47.0370   14.7830   -4.3560 C   0  0  0  0  0  3  0  0  0  0  0  0
   45.9950   15.6900   -4.1920 C   0  0  0  0  0  3  0  0  0  0  0  0
   46.2720   17.0070   -3.8240 C   0  0  0  0  0  0  0  0  0  0  0  0
   47.5970   17.4140   -3.6260 C   0  0  0  0  0  3  0  0  0  0  0  0
   44.9330   18.1850   -3.6220 S   0  0  0  0  0  0  0  0  0  0  0  0
   45.1580   19.3090   -4.6450 O   0  0  0  0  0  0  0  0  0  0  0  0
   43.1650   17.7790   -3.6380 C   0  0  0  0  0  1  0  0  0  0  0  0
   45.2130   18.9890   -2.3420 O   0  0  0  0  0  0  0  0  0  0  0  0
   55.9840   17.8550   -4.7500 C   0  0  2  0  0  3  0  0  0  0  0  0
   55.7730   17.7890   -6.2580 C   0  0  0  0  0  0  0  0  0  0  0  0
   56.8350   17.6930   -7.1730 C   0  0  0  0  0  0  0  0  0  0  0  0
   58.3020   17.6230   -6.8720 C   0  0  0  0  0  1  0  0  0  0  0  0
   56.2180   17.6480   -8.7360 S   0  0  0  0  0  0  0  0  0  0  0  0
   54.6050   17.7520   -8.2870 C   0  0  0  0  0  0  0  0  0  0  0  0
   53.4480   17.7720   -9.2270 C   0  0  0  0  0  1  0  0  0  0  0  0
   54.5190   17.8220   -6.9030 C   0  0  0  0  0  3  0  0  0  0  0  0
   56.1500   16.4740   -4.0500 C   0  0  0  0  0  2  0  0  0  0  0  0
   57.2900   16.4710   -3.0150 C   0  0  0  0  0  2  0  0  0  0  0  0
   58.2670   17.6130   -3.2760 C   0  0  0  0  0  1  0  0  0  0  0  0
  1  2  1  0  0  0  0
  1 11  1  0  0  0  0
  2  3  2  0  0  0  0
  4  2  2  0  0  0  0
  5  6  2  0  0  0  0
  5  2  1  0  0  0  0
  7  8  1  0  0  0  0
  7  6  1  0  0  0  0
  9 10  2  0  0  0  0
  9  7  1  0  0  0  0
 10  5  1  0  0  0  0
 12 11  1  0  0  0  0
 12 13  1  0  0  0  0
 13 14  1  0  0  0  0
 15 13  2  0  0  0  0
 16 15  1  0  0  0  0
 17 18  1  0  0  0  0
 17 16  2  0  0  0  0
 18 12  2  0  0  0  0
 19 24  1  0  0  0  0
 19 16  1  0  0  0  0
 20 19  2  0  0  0  0
 21 22  2  0  0  0  0
 21 20  1  0  0  0  0
 22 23  1  0  0  0  0
 23 24  2  0  0  0  0
 23 25  1  0  0  0  0
 25 28  2  0  0  0  0
 26 25  2  0  0  0  0
 27 25  1  0  0  0  0
 29  1  1  0  0  0  0
 29 37  1  1  0  0  0
 30 29  1  0  0  0  0
 31 32  1  0  0  0  0
 31 30  2  0  0  0  0
 33 34  1  0  0  0  0
 33 31  1  0  0  0  0
 34 36  2  0  0  0  0
 35 34  1  0  0  0  0
 36 30  1  0  0  0  0
 37 38  1  0  0  0  0
 39 38  1  0  0  0  0
M  END
>  <POSE>
4

>  <SCORE>
-6.709

>  <RMSD_LB_BP>
2.299

>  <RMSD_UB_BP>
3.304

$$$$
/content/4EXS_VS/DOCKING/CLC-0000187/CLC-0000187_output.pdbqt
 OpenBabel03062504413D

 39 42  0  0  1  0  0  0  0  0999 V2000
   54.8330   18.3600   -4.2580 N   0  0  0  0  0  0  0  0  0  0  0  0
   54.5170   19.2970   -2.7590 S   0  0  0  0  0  0  0  0  0  0  0  0
   53.0180   19.6300   -2.7310 O   0  0  0  0  0  0  0  0  0  0  0  0
   55.1550   20.6800   -2.9650 O   0  0  0  0  0  0  0  0  0  0  0  0
   55.0490   18.5230   -1.2380 C   0  0  0  0  0  0  0  0  0  0  0  0
   55.9960   17.5320   -1.1200 C   0  0  0  0  0  3  0  0  0  0  0  0
   56.0690   17.1990    0.1780 N   0  0  0  0  0  0  0  0  0  0  0  0
   56.9250   16.1840    0.7800 C   0  0  0  0  0  1  0  0  0  0  0  0
   55.1820   17.9840    0.8200 C   0  0  0  0  0  3  0  0  0  0  0  0
   54.5340   18.8110   -0.0260 N   0  0  0  0  0  0  0  0  0  0  0  0
   54.5180   16.9220   -4.0820 C   0  0  0  0  0  2  0  0  0  0  0  0
   53.0230   16.6600   -4.1590 C   0  0  0  0  0  0  0  0  0  0  0  0
   52.2960   16.6900   -5.3730 C   0  0  0  0  0  0  0  0  0  0  0  0
   52.9410   16.9430   -6.7090 C   0  0  0  0  0  1  0  0  0  0  0  0
   50.9070   16.4730   -5.3570 C   0  0  0  0  0  3  0  0  0  0  0  0
   50.1990   16.2190   -4.1580 C   0  0  0  0  0  0  0  0  0  0  0  0
   50.9540   16.1800   -2.9650 C   0  0  0  0  0  3  0  0  0  0  0  0
   52.3310   16.3940   -2.9690 C   0  0  0  0  0  3  0  0  0  0  0  0
   48.6980   16.0020   -4.1510 C   0  0  0  0  0  0  0  0  0  0  0  0
   48.1360   14.7180   -4.3640 C   0  0  0  0  0  3  0  0  0  0  0  0
   46.7530   14.5200   -4.3570 C   0  0  0  0  0  3  0  0  0  0  0  0
   45.8900   15.5890   -4.1400 C   0  0  0  0  0  3  0  0  0  0  0  0
   46.4060   16.8660   -3.9240 C   0  0  0  0  0  0  0  0  0  0  0  0
   47.7920   17.0710   -3.9310 C   0  0  0  0  0  3  0  0  0  0  0  0
   45.2970   18.2520   -3.6540 S   0  0  0  0  0  0  0  0  0  0  0  0
   45.7530   19.3870   -4.5840 O   0  0  0  0  0  0  0  0  0  0  0  0
   43.4860   18.1780   -3.7320 C   0  0  0  0  0  1  0  0  0  0  0  0
   45.6790   18.8960   -2.3120 O   0  0  0  0  0  0  0  0  0  0  0  0
   56.1700   18.6240   -4.8580 C   0  0  2  0  0  3  0  0  0  0  0  0
   55.9810   19.2140   -6.2510 C   0  0  0  0  0  0  0  0  0  0  0  0
   56.0780   18.4470   -7.4240 C   0  0  0  0  0  0  0  0  0  0  0  0
   56.3520   16.9780   -7.5390 C   0  0  0  0  0  1  0  0  0  0  0  0
   55.8150   19.4370   -8.7570 S   0  0  0  0  0  0  0  0  0  0  0  0
   55.5790   20.8470   -7.8790 C   0  0  0  0  0  0  0  0  0  0  0  0
   55.2910   22.1890   -8.4640 C   0  0  0  0  0  1  0  0  0  0  0  0
   55.7000   20.5690   -6.5250 C   0  0  0  0  0  3  0  0  0  0  0  0
   57.1140   17.3870   -4.7940 C   0  0  0  0  0  2  0  0  0  0  0  0
   58.2610   17.5730   -3.7840 C   0  0  0  0  0  2  0  0  0  0  0  0
   58.6070   19.0490   -3.6160 C   0  0  0  0  0  1  0  0  0  0  0  0
  1 11  1  0  0  0  0
  1  2  1  0  0  0  0
  2  3  2  0  0  0  0
  2  5  1  0  0  0  0
  4  2  2  0  0  0  0
  5  6  2  0  0  0  0
  5 10  1  0  0  0  0
  6  7  1  0  0  0  0
  7  8  1  0  0  0  0
  7  9  1  0  0  0  0
 10  9  2  0  0  0  0
 12 11  1  0  0  0  0
 12 18  1  0  0  0  0
 13 15  1  0  0  0  0
 13 12  2  0  0  0  0
 14 13  1  0  0  0  0
 15 16  2  0  0  0  0
 16 19  1  0  0  0  0
 16 17  1  0  0  0  0
 18 17  2  0  0  0  0
 19 24  1  0  0  0  0
 20 21  1  0  0  0  0
 20 19  2  0  0  0  0
 21 22  2  0  0  0  0
 22 23  1  0  0  0  0
 23 25  1  0  0  0  0
 24 23  2  0  0  0  0
 25 28  2  0  0  0  0
 26 25  2  0  0  0  0
 27 25  1  0  0  0  0
 29 37  1  6  0  0  0
 29  1  1  0  0  0  0
 30 29  1  0  0  0  0
 31 30  2  0  0  0  0
 32 31  1  0  0  0  0
 33 34  1  0  0  0  0
 33 31  1  0  0  0  0
 34 36  2  0  0  0  0
 35 34  1  0  0  0  0
 36 30  1  0  0  0  0
 37 38  1  0  0  0  0
 38 39  1  0  0  0  0
M  END
>  <POSE>
5

>  <SCORE>
-6.575

>  <RMSD_LB_BP>
1.907

>  <RMSD_UB_BP>
2.582

$$$$
/content/4EXS_VS/DOCKING/CLC-0000187/CLC-0000187_output.pdbqt
 OpenBabel03062504413D

 39 42  0  0  1  0  0  0  0  0999 V2000
   54.9090   17.5070   -3.7140 N   0  0  0  0  0  0  0  0  0  0  0  0
   55.3850   19.1780   -3.2600 S   0  0  0  0  0  0  0  0  0  0  0  0
   54.8740   19.4310   -1.8330 O   0  0  0  0  0  0  0  0  0  0  0  0
   54.5070   20.1250   -4.0940 O   0  0  0  0  0  0  0  0  0  0  0  0
   57.1260   19.5540   -3.4120 C   0  0  0  0  0  0  0  0  0  0  0  0
   57.6820   20.4990   -4.2450 C   0  0  0  0  0  3  0  0  0  0  0  0
   59.0130   20.4360   -4.0900 N   0  0  0  0  0  0  0  0  0  0  0  0
   60.0180   21.2380   -4.7770 C   0  0  0  0  0  1  0  0  0  0  0  0
   59.2430   19.4730   -3.1770 C   0  0  0  0  0  3  0  0  0  0  0  0
   58.0980   18.9070   -2.7400 N   0  0  0  0  0  0  0  0  0  0  0  0
   54.2780   16.7900   -2.5800 C   0  0  0  0  0  2  0  0  0  0  0  0
   52.7980   16.5460   -2.8220 C   0  0  0  0  0  0  0  0  0  0  0  0
   52.1820   15.2860   -2.6280 C   0  0  0  0  0  0  0  0  0  0  0  0
   52.9250   14.0790   -2.1240 C   0  0  0  0  0  1  0  0  0  0  0  0
   50.8140   15.1300   -2.9100 C   0  0  0  0  0  3  0  0  0  0  0  0
   50.0170   16.2000   -3.3830 C   0  0  0  0  0  0  0  0  0  0  0  0
   50.6560   17.4480   -3.5510 C   0  0  0  0  0  3  0  0  0  0  0  0
   52.0120   17.6140   -3.2750 C   0  0  0  0  0  3  0  0  0  0  0  0
   48.5440   16.0160   -3.6980 C   0  0  0  0  0  0  0  0  0  0  0  0
   48.0370   14.7770   -4.1640 C   0  0  0  0  0  3  0  0  0  0  0  0
   46.6800   14.6100   -4.4530 C   0  0  0  0  0  3  0  0  0  0  0  0
   45.7910   15.6670   -4.2890 C   0  0  0  0  0  3  0  0  0  0  0  0
   46.2520   16.9000   -3.8300 C   0  0  0  0  0  0  0  0  0  0  0  0
   47.6120   17.0740   -3.5390 C   0  0  0  0  0  3  0  0  0  0  0  0
   45.1110   18.2700   -3.6270 S   0  0  0  0  0  0  0  0  0  0  0  0
   45.5070   19.3470   -4.6490 O   0  0  0  0  0  0  0  0  0  0  0  0
   43.3010   18.1410   -3.6460 C   0  0  0  0  0  1  0  0  0  0  0  0
   45.5100   19.0200   -2.3460 O   0  0  0  0  0  0  0  0  0  0  0  0
   55.9890   16.7420   -4.3950 C   0  0  2  0  0  3  0  0  0  0  0  0
   56.0220   17.1360   -5.8670 C   0  0  0  0  0  0  0  0  0  0  0  0
   54.9110   17.0040   -6.7170 C   0  0  0  0  0  0  0  0  0  0  0  0
   53.5430   16.4990   -6.3670 C   0  0  0  0  0  1  0  0  0  0  0  0
   55.3250   17.5320   -8.2580 S   0  0  0  0  0  0  0  0  0  0  0  0
   56.9110   17.9300   -7.8820 C   0  0  0  0  0  0  0  0  0  0  0  0
   57.9110   18.4830   -8.8410 C   0  0  0  0  0  1  0  0  0  0  0  0
   57.1450   17.6590   -6.5410 C   0  0  0  0  0  3  0  0  0  0  0  0
   55.9030   15.2100   -4.1290 C   0  0  0  0  0  2  0  0  0  0  0  0
   57.2710   14.5940   -3.7820 C   0  0  0  0  0  2  0  0  0  0  0  0
   58.1170   14.4010   -5.0360 C   0  0  0  0  0  1  0  0  0  0  0  0
  1  2  1  0  0  0  0
  1 11  1  0  0  0  0
  2  3  2  0  0  0  0
  4  2  2  0  0  0  0
  5  2  1  0  0  0  0
  5 10  1  0  0  0  0
  6  7  1  0  0  0  0
  6  5  2  0  0  0  0
  7  9  1  0  0  0  0
  8  7  1  0  0  0  0
  9 10  2  0  0  0  0
 12 13  1  0  0  0  0
 12 11  1  0  0  0  0
 13 14  1  0  0  0  0
 15 13  2  0  0  0  0
 16 15  1  0  0  0  0
 17 16  2  0  0  0  0
 17 18  1  0  0  0  0
 18 12  2  0  0  0  0
 19 24  1  0  0  0  0
 19 16  1  0  0  0  0
 20 19  2  0  0  0  0
 21 22  2  0  0  0  0
 21 20  1  0  0  0  0
 22 23  1  0  0  0  0
 23 25  1  0  0  0  0
 23 24  2  0  0  0  0
 25 28  2  0  0  0  0
 26 25  2  0  0  0  0
 27 25  1  0  0  0  0
 29 37  1  6  0  0  0
 29  1  1  0  0  0  0
 30 29  1  0  0  0  0
 31 32  1  0  0  0  0
 31 30  2  0  0  0  0
 33 34  1  0  0  0  0
 33 31  1  0  0  0  0
 34 36  2  0  0  0  0
 35 34  1  0  0  0  0
 36 30  1  0  0  0  0
 37 38  1  0  0  0  0
 39 38  1  0  0  0  0
M  END
>  <POSE>
6

>  <SCORE>
-6.438

>  <RMSD_LB_BP>
1.924

>  <RMSD_UB_BP>
2.867

$$$$
/content/4EXS_VS/DOCKING/CLC-0000187/CLC-0000187_output.pdbqt
 OpenBabel03062504413D

 39 42  0  0  1  0  0  0  0  0999 V2000
   55.2820   17.1580   -3.8090 N   0  0  0  0  0  0  0  0  0  0  0  0
   55.6590   17.9210   -5.3910 S   0  0  0  0  0  0  0  0  0  0  0  0
   55.5160   19.4400   -5.2150 O   0  0  0  0  0  0  0  0  0  0  0  0
   54.4860   17.5890   -6.3280 O   0  0  0  0  0  0  0  0  0  0  0  0
   57.2400   17.4860   -6.1010 C   0  0  0  0  0  0  0  0  0  0  0  0
   58.4610   18.0170   -5.7500 C   0  0  0  0  0  3  0  0  0  0  0  0
   59.3850   17.4570   -6.5460 N   0  0  0  0  0  0  0  0  0  0  0  0
   60.8180   17.7220   -6.5510 C   0  0  0  0  0  1  0  0  0  0  0  0
   58.7250   16.6040   -7.3520 C   0  0  0  0  0  3  0  0  0  0  0  0
   57.3980   16.6000   -7.1040 N   0  0  0  0  0  0  0  0  0  0  0  0
   54.4090   18.0220   -2.9790 C   0  0  0  0  0  2  0  0  0  0  0  0
   52.9390   17.6870   -3.1690 C   0  0  0  0  0  0  0  0  0  0  0  0
   51.8940   18.4520   -2.5990 C   0  0  0  0  0  0  0  0  0  0  0  0
   52.1370   19.6930   -1.7830 C   0  0  0  0  0  1  0  0  0  0  0  0
   50.5590   18.0560   -2.7900 C   0  0  0  0  0  3  0  0  0  0  0  0
   50.2150   16.9100   -3.5450 C   0  0  0  0  0  0  0  0  0  0  0  0
   51.2790   16.1760   -4.1150 C   0  0  0  0  0  3  0  0  0  0  0  0
   52.6060   16.5590   -3.9310 C   0  0  0  0  0  3  0  0  0  0  0  0
   48.7710   16.4840   -3.7330 C   0  0  0  0  0  0  0  0  0  0  0  0
   48.4300   15.1440   -4.0460 C   0  0  0  0  0  3  0  0  0  0  0  0
   47.1000   14.7540   -4.2180 C   0  0  0  0  0  3  0  0  0  0  0  0
   46.0720   15.6820   -4.0850 C   0  0  0  0  0  3  0  0  0  0  0  0
   46.3680   17.0080   -3.7740 C   0  0  0  0  0  0  0  0  0  0  0  0
   47.7010   17.4060   -3.6010 C   0  0  0  0  0  3  0  0  0  0  0  0
   45.0460   18.2120   -3.6110 S   0  0  0  0  0  0  0  0  0  0  0  0
   45.3270   19.3340   -4.6230 O   0  0  0  0  0  0  0  0  0  0  0  0
   43.2720   17.8400   -3.6880 C   0  0  0  0  0  1  0  0  0  0  0  0
   45.3000   19.0060   -2.3200 O   0  0  0  0  0  0  0  0  0  0  0  0
   56.4790   16.6330   -3.0980 C   0  0  2  0  0  3  0  0  0  0  0  0
   56.3560   15.1190   -2.9710 C   0  0  0  0  0  0  0  0  0  0  0  0
   57.3270   14.2310   -3.4650 C   0  0  0  0  0  0  0  0  0  0  0  0
   58.6130   14.5700   -4.1580 C   0  0  0  0  0  1  0  0  0  0  0  0
   56.8480   12.6520   -3.1470 S   0  0  0  0  0  0  0  0  0  0  0  0
   55.4090   13.0600   -2.3870 C   0  0  0  0  0  0  0  0  0  0  0  0
   54.4240   12.0890   -1.8270 C   0  0  0  0  0  1  0  0  0  0  0  0
   55.2780   14.4410   -2.3650 C   0  0  0  0  0  3  0  0  0  0  0  0
   56.7620   17.3820   -1.7610 C   0  0  0  0  0  2  0  0  0  0  0  0
   58.1320   18.0840   -1.7580 C   0  0  0  0  0  2  0  0  0  0  0  0
   58.0970   19.3550   -2.6010 C   0  0  0  0  0  1  0  0  0  0  0  0
  1 29  1  0  0  0  0
  1 11  1  0  0  0  0
  2  3  2  0  0  0  0
  2  1  1  0  0  0  0
  4  2  2  0  0  0  0
  5  6  2  0  0  0  0
  5  2  1  0  0  0  0
  7  6  1  0  0  0  0
  8  7  1  0  0  0  0
  9 10  2  0  0  0  0
  9  7  1  0  0  0  0
 10  5  1  0  0  0  0
 12 11  1  0  0  0  0
 12 13  1  0  0  0  0
 13 14  1  0  0  0  0
 15 13  2  0  0  0  0
 16 15  1  0  0  0  0
 17 18  1  0  0  0  0
 17 16  2  0  0  0  0
 18 12  2  0  0  0  0
 19 24  1  0  0  0  0
 19 16  1  0  0  0  0
 20 19  2  0  0  0  0
 21 22  2  0  0  0  0
 21 20  1  0  0  0  0
 22 23  1  0  0  0  0
 23 25  1  0  0  0  0
 23 24  2  0  0  0  0
 25 28  2  0  0  0  0
 26 25  2  0  0  0  0
 27 25  1  0  0  0  0
 29 30  1  0  0  0  0
 29 37  1  1  0  0  0
 30 36  1  0  0  0  0
 31 33  1  0  0  0  0
 31 30  2  0  0  0  0
 32 31  1  0  0  0  0
 33 34  1  0  0  0  0
 34 36  2  0  0  0  0
 34 35  1  0  0  0  0
 37 38  1  0  0  0  0
 39 38  1  0  0  0  0
M  END
>  <POSE>
7

>  <SCORE>
-6.408

>  <RMSD_LB_BP>
2.211

>  <RMSD_UB_BP>
4.682

$$$$
/content/4EXS_VS/DOCKING/CLC-0000187/CLC-0000187_output.pdbqt
 OpenBabel03062504413D

 39 42  0  0  1  0  0  0  0  0999 V2000
   54.8190   18.9980   -4.1490 N   0  0  0  0  0  0  0  0  0  0  0  0
   54.8840   20.4620   -3.1110 S   0  0  0  0  0  0  0  0  0  0  0  0
   54.3370   21.6370   -3.9370 O   0  0  0  0  0  0  0  0  0  0  0  0
   56.3690   20.8290   -2.9660 O   0  0  0  0  0  0  0  0  0  0  0  0
   54.0590   20.3270   -1.5310 C   0  0  0  0  0  0  0  0  0  0  0  0
   52.7880   20.7680   -1.2390 C   0  0  0  0  0  3  0  0  0  0  0  0
   52.5660   20.5170    0.0600 N   0  0  0  0  0  0  0  0  0  0  0  0
   51.3610   20.8230    0.8210 C   0  0  0  0  0  1  0  0  0  0  0  0
   53.6840   19.9310    0.5300 C   0  0  0  0  0  3  0  0  0  0  0  0
   54.6260   19.8020   -0.4280 N   0  0  0  0  0  0  0  0  0  0  0  0
   54.4750   17.7870   -3.3660 C   0  0  0  0  0  2  0  0  0  0  0  0
   53.0330   17.3640   -3.5860 C   0  0  0  0  0  0  0  0  0  0  0  0
   52.5980   16.6780   -4.7440 C   0  0  0  0  0  0  0  0  0  0  0  0
   53.5300   16.2650   -5.8510 C   0  0  0  0  0  1  0  0  0  0  0  0
   51.2380   16.3530   -4.8910 C   0  0  0  0  0  3  0  0  0  0  0  0
   50.2750   16.6870   -3.9100 C   0  0  0  0  0  0  0  0  0  0  0  0
   50.7420   17.3580   -2.7580 C   0  0  0  0  0  3  0  0  0  0  0  0
   52.0870   17.6840   -2.6020 C   0  0  0  0  0  3  0  0  0  0  0  0
   48.8080   16.3450   -4.0860 C   0  0  0  0  0  0  0  0  0  0  0  0
   48.3950   15.0590   -4.5180 C   0  0  0  0  0  3  0  0  0  0  0  0
   47.0430   14.7460   -4.6790 C   0  0  0  0  0  3  0  0  0  0  0  0
   46.0640   15.6990   -4.4170 C   0  0  0  0  0  3  0  0  0  0  0  0
   46.4320   16.9740   -3.9870 C   0  0  0  0  0  0  0  0  0  0  0  0
   47.7860   17.2940   -3.8250 C   0  0  0  0  0  3  0  0  0  0  0  0
   45.1730   18.2110   -3.6590 S   0  0  0  0  0  0  0  0  0  0  0  0
   45.4110   19.3730   -4.6360 O   0  0  0  0  0  0  0  0  0  0  0  0
   43.3860   17.9020   -3.6040 C   0  0  0  0  0  1  0  0  0  0  0  0
   45.5600   18.9310   -2.3570 O   0  0  0  0  0  0  0  0  0  0  0  0
   56.0050   18.8380   -5.0340 C   0  0  2  0  0  3  0  0  0  0  0  0
   55.7900   19.6540   -6.3030 C   0  0  0  0  0  0  0  0  0  0  0  0
   56.7050   20.6210   -6.7520 C   0  0  0  0  0  0  0  0  0  0  0  0
   58.0100   21.0120   -6.1250 C   0  0  0  0  0  1  0  0  0  0  0  0
   56.1290   21.3120   -8.1720 S   0  0  0  0  0  0  0  0  0  0  0  0
   54.7170   20.4090   -8.2420 C   0  0  0  0  0  0  0  0  0  0  0  0
   53.6740   20.5200   -9.3030 C   0  0  0  0  0  1  0  0  0  0  0  0
   54.6710   19.5470   -7.1560 C   0  0  0  0  0  3  0  0  0  0  0  0
   56.3840   17.3460   -5.2700 C   0  0  0  0  0  2  0  0  0  0  0  0
   57.9020   17.1420   -5.4280 C   0  0  0  0  0  2  0  0  0  0  0  0
   58.2110   16.2460   -6.6230 C   0  0  0  0  0  1  0  0  0  0  0  0
  1 11  1  0  0  0  0
  1  2  1  0  0  0  0
  2  4  2  0  0  0  0
  2  5  1  0  0  0  0
  3  2  2  0  0  0  0
  5  6  2  0  0  0  0
  5 10  1  0  0  0  0
  6  7  1  0  0  0  0
  7  9  1  0  0  0  0
  7  8  1  0  0  0  0
 10  9  2  0  0  0  0
 12 11  1  0  0  0  0
 12 18  1  0  0  0  0
 13 12  2  0  0  0  0
 14 13  1  0  0  0  0
 15 13  1  0  0  0  0
 15 16  2  0  0  0  0
 16 17  1  0  0  0  0
 17 18  2  0  0  0  0
 19 16  1  0  0  0  0
 19 24  1  0  0  0  0
 20 19  2  0  0  0  0
 21 20  1  0  0  0  0
 21 22  2  0  0  0  0
 22 23  1  0  0  0  0
 23 24  2  0  0  0  0
 23 25  1  0  0  0  0
 25 27  1  0  0  0  0
 25 28  2  0  0  0  0
 26 25  2  0  0  0  0
 29 37  1  6  0  0  0
 29  1  1  0  0  0  0
 30 29  1  0  0  0  0
 31 30  2  0  0  0  0
 31 32  1  0  0  0  0
 33 31  1  0  0  0  0
 34 33  1  0  0  0  0
 34 36  2  0  0  0  0
 35 34  1  0  0  0  0
 36 30  1  0  0  0  0
 38 37  1  0  0  0  0
 39 38  1  0  0  0  0
M  END
>  <POSE>
8

>  <SCORE>
-6.224

>  <RMSD_LB_BP>
1.746

>  <RMSD_UB_BP>
2.178

$$$$
/content/4EXS_VS/DOCKING/CLC-0000187/CLC-0000187_output.pdbqt
 OpenBabel03062504413D

 39 42  0  0  1  0  0  0  0  0999 V2000
   56.5270   18.7440   -5.7790 N   0  0  0  0  0  0  0  0  0  0  0  0
   57.1490   19.7570   -4.4330 S   0  0  0  0  0  0  0  0  0  0  0  0
   58.2280   20.6830   -5.0140 O   0  0  0  0  0  0  0  0  0  0  0  0
   57.9710   18.8260   -3.5270 O   0  0  0  0  0  0  0  0  0  0  0  0
   55.9140   20.6740   -3.5220 C   0  0  0  0  0  0  0  0  0  0  0  0
   54.9180   20.1360   -2.7390 C   0  0  0  0  0  3  0  0  0  0  0  0
   54.1820   21.1570   -2.2700 N   0  0  0  0  0  0  0  0  0  0  0  0
   53.0100   21.0720   -1.4080 C   0  0  0  0  0  1  0  0  0  0  0  0
   54.7360   22.2810   -2.7630 C   0  0  0  0  0  3  0  0  0  0  0  0
   55.8060   22.0170   -3.5420 N   0  0  0  0  0  0  0  0  0  0  0  0
   56.4380   17.3150   -5.3920 C   0  0  0  0  0  2  0  0  0  0  0  0
   55.0480   16.9510   -4.8980 C   0  0  0  0  0  0  0  0  0  0  0  0
   53.9480   16.7520   -5.7660 C   0  0  0  0  0  0  0  0  0  0  0  0
   54.0580   16.8430   -7.2640 C   0  0  0  0  0  1  0  0  0  0  0  0
   52.6830   16.4540   -5.2280 C   0  0  0  0  0  3  0  0  0  0  0  0
   52.4670   16.3380   -3.8350 C   0  0  0  0  0  0  0  0  0  0  0  0
   53.5870   16.5260   -2.9950 C   0  0  0  0  0  3  0  0  0  0  0  0
   54.8450   16.8230   -3.5170 C   0  0  0  0  0  3  0  0  0  0  0  0
   51.0950   16.0300   -3.2660 C   0  0  0  0  0  0  0  0  0  0  0  0
   50.8700   14.8900   -2.4530 C   0  0  0  0  0  3  0  0  0  0  0  0
   49.6060   14.6090   -1.9300 C   0  0  0  0  0  3  0  0  0  0  0  0
   48.5300   15.4490   -2.1980 C   0  0  0  0  0  3  0  0  0  0  0  0
   48.7140   16.5820   -2.9910 C   0  0  0  0  0  0  0  0  0  0  0  0
   49.9790   16.8690   -3.5190 C   0  0  0  0  0  3  0  0  0  0  0  0
   47.3260   17.6640   -3.3500 S   0  0  0  0  0  0  0  0  0  0  0  0
   47.7660   18.6060   -4.4810 O   0  0  0  0  0  0  0  0  0  0  0  0
   45.6370   17.1160   -3.7200 C   0  0  0  0  0  1  0  0  0  0  0  0
   47.2420   18.6990   -2.2170 O   0  0  0  0  0  0  0  0  0  0  0  0
   57.2150   18.9850   -7.0770 C   0  0  2  0  0  3  0  0  0  0  0  0
   56.5050   20.1150   -7.8120 C   0  0  0  0  0  0  0  0  0  0  0  0
   57.1870   21.0650   -8.5910 C   0  0  0  0  0  0  0  0  0  0  0  0
   58.6600   21.1460   -8.8580 C   0  0  0  0  0  1  0  0  0  0  0  0
   56.0780   22.1510   -9.2370 S   0  0  0  0  0  0  0  0  0  0  0  0
   54.7230   21.4460   -8.5430 C   0  0  0  0  0  0  0  0  0  0  0  0
   53.3210   21.9300   -8.7030 C   0  0  0  0  0  1  0  0  0  0  0  0
   55.1130   20.3440   -7.7940 C   0  0  0  0  0  3  0  0  0  0  0  0
   57.4080   17.6820   -7.9070 C   0  0  0  0  0  2  0  0  0  0  0  0
   58.8220   17.0910   -7.7570 C   0  0  0  0  0  2  0  0  0  0  0  0
   59.3310   16.5470   -9.0880 C   0  0  0  0  0  1  0  0  0  0  0  0
  1 11  1  0  0  0  0
  1  2  1  0  0  0  0
  2  4  2  0  0  0  0
  2  5  1  0  0  0  0
  3  2  2  0  0  0  0
  5  6  2  0  0  0  0
  6  7  1  0  0  0  0
  7  8  1  0  0  0  0
  9  7  1  0  0  0  0
 10  5  1  0  0  0  0
 10  9  2  0  0  0  0
 11 12  1  0  0  0  0
 12 18  1  0  0  0  0
 13 15  1  0  0  0  0
 13 12  2  0  0  0  0
 14 13  1  0  0  0  0
 15 16  2  0  0  0  0
 16 19  1  0  0  0  0
 16 17  1  0  0  0  0
 18 17  2  0  0  0  0
 19 20  1  0  0  0  0
 20 21  2  0  0  0  0
 22 21  1  0  0  0  0
 23 22  2  0  0  0  0
 24 19  2  0  0  0  0
 24 23  1  0  0  0  0
 25 23  1  0  0  0  0
 25 28  2  0  0  0  0
 26 25  2  0  0  0  0
 27 25  1  0  0  0  0
 29 37  1  6  0  0  0
 29  1  1  0  0  0  0
 30 36  1  0  0  0  0
 30 29  1  0  0  0  0
 31 30  2  0  0  0  0
 32 31  1  0  0  0  0
 33 31  1  0  0  0  0
 33 34  1  0  0  0  0
 34 36  2  0  0  0  0
 35 34  1  0  0  0  0
 37 38  1  0  0  0  0
 39 38  1  0  0  0  0
M  END
>  <POSE>
9

>  <SCORE>
-6.128

>  <RMSD_LB_BP>
2.537

>  <RMSD_UB_BP>
3.791

$$$$
