/content/4EXS_VS/DOCKING/CLC-0000189/CLC-0000189_output.pdbqt
 OpenBabel03062504413D

 40 43  0  0  1  0  0  0  0  0999 V2000
   54.6040   17.2190   -3.6160 N   0  0  0  0  0  0  0  0  0  0  0  0
   55.1710   18.7230   -2.8080 S   0  0  0  0  0  0  0  0  0  0  0  0
   55.0010   19.8190   -3.8720 O   0  0  0  0  0  0  0  0  0  0  0  0
   56.7010   18.6470   -2.7460 O   0  0  0  0  0  0  0  0  0  0  0  0
   54.4420   19.2590   -1.2590 C   0  0  0  0  0  0  0  0  0  0  0  0
   53.3970   20.1450   -1.1290 C   0  0  0  0  0  3  0  0  0  0  0  0
   53.1510   20.2860    0.1840 N   0  0  0  0  0  0  0  0  0  0  0  0
   52.1330   21.1230    0.8050 C   0  0  0  0  0  1  0  0  0  0  0  0
   54.0380   19.4970    0.8210 C   0  0  0  0  0  3  0  0  0  0  0  0
   54.8490   18.8500   -0.0400 N   0  0  0  0  0  0  0  0  0  0  0  0
   53.9870   16.3020   -2.6290 C   0  0  0  0  0  2  0  0  0  0  0  0
   52.5090   16.1220   -2.9120 C   0  0  0  0  0  0  0  0  0  0  0  0
   51.7780   14.9730   -2.5330 C   0  0  0  0  0  0  0  0  0  0  0  0
   52.4300   13.8210   -1.8150 C   0  0  0  0  0  1  0  0  0  0  0  0
   50.4040   14.8960   -2.8340 C   0  0  0  0  0  3  0  0  0  0  0  0
   49.7240   15.9350   -3.5120 C   0  0  0  0  0  0  0  0  0  0  0  0
   50.4870   17.0640   -3.8860 C   0  0  0  0  0  3  0  0  0  0  0  0
   51.8460   17.1520   -3.5900 C   0  0  0  0  0  3  0  0  0  0  0  0
   48.2420   15.8450   -3.8260 C   0  0  0  0  0  0  0  0  0  0  0  0
   47.6670   14.6580   -4.3450 C   0  0  0  0  0  3  0  0  0  0  0  0
   46.3030   14.5790   -4.6370 C   0  0  0  0  0  3  0  0  0  0  0  0
   45.4730   15.6750   -4.4240 C   0  0  0  0  0  3  0  0  0  0  0  0
   46.0040   16.8610   -3.9150 C   0  0  0  0  0  0  0  0  0  0  0  0
   47.3720   16.9460   -3.6190 C   0  0  0  0  0  3  0  0  0  0  0  0
   44.9350   18.2800   -3.6540 S   0  0  0  0  0  0  0  0  0  0  0  0
   45.3740   19.3710   -4.6430 O   0  0  0  0  0  0  0  0  0  0  0  0
   43.1210   18.2410   -3.6500 C   0  0  0  0  0  1  0  0  0  0  0  0
   45.3870   18.9620   -2.3530 O   0  0  0  0  0  0  0  0  0  0  0  0
   55.5660   16.5170   -4.5150 C   0  0  2  0  0  3  0  0  0  0  0  0
   55.4090   16.8760   -5.9910 C   0  0  0  0  0  0  0  0  0  0  0  0
   56.4630   16.9610   -6.9210 C   0  0  0  0  0  0  0  0  0  0  0  0
   57.9340   16.7680   -6.7040 C   0  0  0  0  0  1  0  0  0  0  0  0
   55.8300   17.3570   -8.4290 S   0  0  0  0  0  0  0  0  0  0  0  0
   54.2280   17.4130   -7.9420 C   0  0  0  0  0  0  0  0  0  0  0  0
   53.0640   17.7230   -8.8220 C   0  0  0  0  0  1  0  0  0  0  0  0
   54.1560   17.1240   -6.5890 C   0  0  0  0  0  3  0  0  0  0  0  0
   55.5620   14.9870   -4.2780 C   0  0  0  0  0  2  0  0  0  0  0  0
   56.9450   14.3870   -3.9380 C   0  0  0  0  0  2  0  0  0  0  0  0
   57.6430   14.9770   -2.6990 C   0  0  0  0  0  2  0  0  0  0  0  0
   57.1390   14.3840   -1.3850 C   0  0  0  0  0  1  0  0  0  0  0  0
  1  2  1  0  0  0  0
  1 11  1  0  0  0  0
  2  4  2  0  0  0  0
  2  5  1  0  0  0  0
  3  2  2  0  0  0  0
  5  6  2  0  0  0  0
  5 10  1  0  0  0  0
  6  7  1  0  0  0  0
  7  8  1  0  0  0  0
  7  9  1  0  0  0  0
 10  9  2  0  0  0  0
 12 11  1  0  0  0  0
 12 13  1  0  0  0  0
 13 14  1  0  0  0  0
 15 13  2  0  0  0  0
 16 15  1  0  0  0  0
 17 18  1  0  0  0  0
 17 16  2  0  0  0  0
 18 12  2  0  0  0  0
 19 24  1  0  0  0  0
 19 16  1  0  0  0  0
 20 19  2  0  0  0  0
 21 22  2  0  0  0  0
 21 20  1  0  0  0  0
 22 23  1  0  0  0  0
 23 25  1  0  0  0  0
 23 24  2  0  0  0  0
 25 27  1  0  0  0  0
 25 28  2  0  0  0  0
 26 25  2  0  0  0  0
 29 37  1  6  0  0  0
 29  1  1  0  0  0  0
 30 29  1  0  0  0  0
 31 32  1  0  0  0  0
 31 30  2  0  0  0  0
 33 34  1  0  0  0  0
 33 31  1  0  0  0  0
 34 36  2  0  0  0  0
 35 34  1  0  0  0  0
 36 30  1  0  0  0  0
 37 38  1  0  0  0  0
 38 39  1  0  0  0  0
 39 40  1  0  0  0  0
M  END
>  <POSE>
1

>  <SCORE>
-7.712

>  <RMSD_LB_BP>
0.000

>  <RMSD_UB_BP>
0.000

$$$$
/content/4EXS_VS/DOCKING/CLC-0000189/CLC-0000189_output.pdbqt
 OpenBabel03062504413D

 40 43  0  0  1  0  0  0  0  0999 V2000
   54.3890   17.4400   -3.7650 N   0  0  0  0  0  0  0  0  0  0  0  0
   54.6640   19.0520   -3.0160 S   0  0  0  0  0  0  0  0  0  0  0  0
   55.6410   18.7800   -1.8620 O   0  0  0  0  0  0  0  0  0  0  0  0
   53.3990   19.3960   -2.2190 O   0  0  0  0  0  0  0  0  0  0  0  0
   55.2540   20.4300   -4.0020 C   0  0  0  0  0  0  0  0  0  0  0  0
   56.5200   20.5560   -4.5260 C   0  0  0  0  0  3  0  0  0  0  0  0
   56.5640   21.7200   -5.1930 N   0  0  0  0  0  0  0  0  0  0  0  0
   57.7000   22.2800   -5.9140 C   0  0  0  0  0  1  0  0  0  0  0  0
   55.3440   22.2760   -5.0660 C   0  0  0  0  0  3  0  0  0  0  0  0
   54.5120   21.5050   -4.3360 N   0  0  0  0  0  0  0  0  0  0  0  0
   53.8090   16.5010   -2.7760 C   0  0  0  0  0  2  0  0  0  0  0  0
   52.3350   16.2790   -3.0440 C   0  0  0  0  0  0  0  0  0  0  0  0
   51.6350   15.1200   -2.6380 C   0  0  0  0  0  0  0  0  0  0  0  0
   52.3200   13.9990   -1.9010 C   0  0  0  0  0  1  0  0  0  0  0  0
   50.2620   15.0030   -2.9270 C   0  0  0  0  0  3  0  0  0  0  0  0
   49.5520   16.0110   -3.6210 C   0  0  0  0  0  0  0  0  0  0  0  0
   50.2840   17.1510   -4.0230 C   0  0  0  0  0  3  0  0  0  0  0  0
   51.6420   17.2790   -3.7390 C   0  0  0  0  0  3  0  0  0  0  0  0
   48.0700   15.8780   -3.9230 C   0  0  0  0  0  0  0  0  0  0  0  0
   47.5270   14.6780   -4.4490 C   0  0  0  0  0  3  0  0  0  0  0  0
   46.1630   14.5610   -4.7290 C   0  0  0  0  0  3  0  0  0  0  0  0
   45.3020   15.6280   -4.4980 C   0  0  0  0  0  3  0  0  0  0  0  0
   45.8010   16.8240   -3.9800 C   0  0  0  0  0  0  0  0  0  0  0  0
   47.1680   16.9490   -3.6970 C   0  0  0  0  0  3  0  0  0  0  0  0
   44.6910   18.2070   -3.6960 S   0  0  0  0  0  0  0  0  0  0  0  0
   45.1040   19.3320   -4.6570 O   0  0  0  0  0  0  0  0  0  0  0  0
   42.8790   18.1170   -3.7030 C   0  0  0  0  0  1  0  0  0  0  0  0
   45.1160   18.8730   -2.3770 O   0  0  0  0  0  0  0  0  0  0  0  0
   55.5210   16.8330   -4.5240 C   0  0  2  0  0  3  0  0  0  0  0  0
   55.4870   17.1210   -6.0230 C   0  0  0  0  0  0  0  0  0  0  0  0
   56.6160   17.1820   -6.8630 C   0  0  0  0  0  0  0  0  0  0  0  0
   58.0650   17.0230   -6.5130 C   0  0  0  0  0  1  0  0  0  0  0  0
   56.1090   17.4970   -8.4370 S   0  0  0  0  0  0  0  0  0  0  0  0
   54.4710   17.5480   -8.0910 C   0  0  0  0  0  0  0  0  0  0  0  0
   53.3830   17.7980   -9.0800 C   0  0  0  0  0  1  0  0  0  0  0  0
   54.2870   17.3200   -6.7370 C   0  0  0  0  0  3  0  0  0  0  0  0
   55.6740   15.3220   -4.2190 C   0  0  0  0  0  2  0  0  0  0  0  0
   56.9750   14.9460   -3.4750 C   0  0  0  0  0  2  0  0  0  0  0  0
   57.1130   13.4630   -3.0800 C   0  0  0  0  0  2  0  0  0  0  0  0
   55.7890   12.8260   -2.6620 C   0  0  0  0  0  1  0  0  0  0  0  0
  1  2  1  0  0  0  0
  1 11  1  0  0  0  0
  2  4  2  0  0  0  0
  2  3  2  0  0  0  0
  5  2  1  0  0  0  0
  6  5  2  0  0  0  0
  7  9  1  0  0  0  0
  7  6  1  0  0  0  0
  8  7  1  0  0  0  0
  9 10  2  0  0  0  0
 10  5  1  0  0  0  0
 12 11  1  0  0  0  0
 12 13  1  0  0  0  0
 13 14  1  0  0  0  0
 15 13  2  0  0  0  0
 16 15  1  0  0  0  0
 17 18  1  0  0  0  0
 17 16  2  0  0  0  0
 18 12  2  0  0  0  0
 19 24  1  0  0  0  0
 19 16  1  0  0  0  0
 20 19  2  0  0  0  0
 21 22  2  0  0  0  0
 21 20  1  0  0  0  0
 22 23  1  0  0  0  0
 23 24  2  0  0  0  0
 23 25  1  0  0  0  0
 25 28  2  0  0  0  0
 26 25  2  0  0  0  0
 27 25  1  0  0  0  0
 29 37  1  6  0  0  0
 29  1  1  0  0  0  0
 30 29  1  0  0  0  0
 31 32  1  0  0  0  0
 31 30  2  0  0  0  0
 33 34  1  0  0  0  0
 33 31  1  0  0  0  0
 34 36  2  0  0  0  0
 35 34  1  0  0  0  0
 36 30  1  0  0  0  0
 37 38  1  0  0  0  0
 38 39  1  0  0  0  0
 39 40  1  0  0  0  0
M  END
>  <POSE>
2

>  <SCORE>
-7.617

>  <RMSD_LB_BP>
1.896

>  <RMSD_UB_BP>
2.498

$$$$
/content/4EXS_VS/DOCKING/CLC-0000189/CLC-0000189_output.pdbqt
 OpenBabel03062504413D

 40 43  0  0  1  0  0  0  0  0999 V2000
   55.3990   16.4970   -4.4280 N   0  0  0  0  0  0  0  0  0  0  0  0
   56.2660   16.7800   -5.9780 S   0  0  0  0  0  0  0  0  0  0  0  0
   56.7380   15.3850   -6.4160 O   0  0  0  0  0  0  0  0  0  0  0  0
   57.6150   17.4190   -5.6250 O   0  0  0  0  0  0  0  0  0  0  0  0
   55.4480   17.6040   -7.3460 C   0  0  0  0  0  0  0  0  0  0  0  0
   55.3790   18.9650   -7.5350 C   0  0  0  0  0  3  0  0  0  0  0  0
   54.6850   19.1780   -8.6650 N   0  0  0  0  0  0  0  0  0  0  0  0
   54.3560   20.4630   -9.2680 C   0  0  0  0  0  1  0  0  0  0  0  0
   54.3460   17.9630   -9.1360 C   0  0  0  0  0  3  0  0  0  0  0  0
   54.8020   16.9700   -8.3450 N   0  0  0  0  0  0  0  0  0  0  0  0
   54.6290   17.7010   -4.0370 C   0  0  0  0  0  2  0  0  0  0  0  0
   53.1470   17.3920   -3.9640 C   0  0  0  0  0  0  0  0  0  0  0  0
   52.2790   17.9610   -3.0050 C   0  0  0  0  0  0  0  0  0  0  0  0
   52.7760   18.9290   -1.9640 C   0  0  0  0  0  1  0  0  0  0  0  0
   50.9140   17.6190   -3.0160 C   0  0  0  0  0  3  0  0  0  0  0  0
   50.3750   16.7110   -3.9590 C   0  0  0  0  0  0  0  0  0  0  0  0
   51.2720   16.1520   -4.8970 C   0  0  0  0  0  3  0  0  0  0  0  0
   52.6250   16.4870   -4.8960 C   0  0  0  0  0  3  0  0  0  0  0  0
   48.9000   16.3530   -3.9670 C   0  0  0  0  0  0  0  0  0  0  0  0
   48.4650   15.0150   -4.1470 C   0  0  0  0  0  3  0  0  0  0  0  0
   47.1060   14.6890   -4.1580 C   0  0  0  0  0  3  0  0  0  0  0  0
   46.1430   15.6790   -3.9940 C   0  0  0  0  0  3  0  0  0  0  0  0
   46.5340   17.0070   -3.8140 C   0  0  0  0  0  0  0  0  0  0  0  0
   47.8950   17.3400   -3.8020 C   0  0  0  0  0  3  0  0  0  0  0  0
   45.2900   18.2870   -3.6160 S   0  0  0  0  0  0  0  0  0  0  0  0
   45.6350   19.4160   -4.5980 O   0  0  0  0  0  0  0  0  0  0  0  0
   43.4960   18.0260   -3.6880 C   0  0  0  0  0  1  0  0  0  0  0  0
   45.5980   19.0270   -2.3060 O   0  0  0  0  0  0  0  0  0  0  0  0
   56.1880   15.9380   -3.2910 C   0  0  2  0  0  3  0  0  0  0  0  0
   55.7270   14.5550   -2.8370 C   0  0  0  0  0  0  0  0  0  0  0  0
   56.4520   13.3610   -3.0120 C   0  0  0  0  0  0  0  0  0  0  0  0
   57.7750   13.1470   -3.6840 C   0  0  0  0  0  1  0  0  0  0  0  0
   55.5800   12.0890   -2.3380 S   0  0  0  0  0  0  0  0  0  0  0  0
   54.2910   13.0170   -1.8060 C   0  0  0  0  0  0  0  0  0  0  0  0
   53.0930   12.5040   -1.0820 C   0  0  0  0  0  1  0  0  0  0  0  0
   54.5170   14.3410   -2.1460 C   0  0  0  0  0  3  0  0  0  0  0  0
   56.2900   16.9400   -2.1140 C   0  0  0  0  0  2  0  0  0  0  0  0
   57.6960   17.5500   -1.9110 C   0  0  0  0  0  2  0  0  0  0  0  0
   57.8920   18.9740   -2.4650 C   0  0  0  0  0  2  0  0  0  0  0  0
   59.3210   19.2470   -2.9300 C   0  0  0  0  0  1  0  0  0  0  0  0
  1 11  1  0  0  0  0
  1 29  1  0  0  0  0
  2  4  2  0  0  0  0
  2  1  1  0  0  0  0
  3  2  2  0  0  0  0
  5  2  1  0  0  0  0
  6  5  2  0  0  0  0
  7  6  1  0  0  0  0
  8  7  1  0  0  0  0
  9  7  1  0  0  0  0
  9 10  2  0  0  0  0
 10  5  1  0  0  0  0
 11 12  1  0  0  0  0
 12 13  1  0  0  0  0
 13 14  1  0  0  0  0
 15 13  2  0  0  0  0
 16 15  1  0  0  0  0
 17 18  1  0  0  0  0
 17 16  2  0  0  0  0
 18 12  2  0  0  0  0
 19 16  1  0  0  0  0
 19 24  1  0  0  0  0
 20 19  2  0  0  0  0
 21 20  1  0  0  0  0
 21 22  2  0  0  0  0
 22 23  1  0  0  0  0
 23 24  2  0  0  0  0
 23 25  1  0  0  0  0
 25 28  2  0  0  0  0
 26 25  2  0  0  0  0
 27 25  1  0  0  0  0
 29 30  1  0  0  0  0
 29 37  1  1  0  0  0
 30 36  1  0  0  0  0
 31 30  2  0  0  0  0
 31 33  1  0  0  0  0
 32 31  1  0  0  0  0
 33 34  1  0  0  0  0
 34 35  1  0  0  0  0
 36 34  2  0  0  0  0
 37 38  1  0  0  0  0
 39 38  1  0  0  0  0
 40 39  1  0  0  0  0
M  END
>  <POSE>
3

>  <SCORE>
-7.544

>  <RMSD_LB_BP>
2.461

>  <RMSD_UB_BP>
4.857

$$$$
/content/4EXS_VS/DOCKING/CLC-0000189/CLC-0000189_output.pdbqt
 OpenBabel03062504413D

 40 43  0  0  1  0  0  0  0  0999 V2000
   54.8840   18.1880   -4.4120 N   0  0  0  0  0  0  0  0  0  0  0  0
   54.7160   19.0930   -2.8670 S   0  0  0  0  0  0  0  0  0  0  0  0
   53.2600   19.5820   -2.8630 O   0  0  0  0  0  0  0  0  0  0  0  0
   55.4460   20.4300   -3.0510 O   0  0  0  0  0  0  0  0  0  0  0  0
   55.0990   18.3070   -1.3010 C   0  0  0  0  0  0  0  0  0  0  0  0
   55.8030   17.1360   -1.1430 C   0  0  0  0  0  3  0  0  0  0  0  0
   55.8730   16.8840    0.1740 N   0  0  0  0  0  0  0  0  0  0  0  0
   56.5220   15.7510    0.8210 C   0  0  0  0  0  1  0  0  0  0  0  0
   55.2210   17.8900    0.7870 C   0  0  0  0  0  3  0  0  0  0  0  0
   54.7310   18.7850   -0.0950 N   0  0  0  0  0  0  0  0  0  0  0  0
   54.5230   16.7630   -4.2200 C   0  0  0  0  0  2  0  0  0  0  0  0
   53.0210   16.5760   -4.2780 C   0  0  0  0  0  0  0  0  0  0  0  0
   52.2730   16.6450   -5.4750 C   0  0  0  0  0  0  0  0  0  0  0  0
   52.9270   16.9230   -6.8030 C   0  0  0  0  0  1  0  0  0  0  0  0
   50.8780   16.4530   -5.4340 C   0  0  0  0  0  3  0  0  0  0  0  0
   50.1920   16.1950   -4.2230 C   0  0  0  0  0  0  0  0  0  0  0  0
   50.9680   16.1430   -3.0440 C   0  0  0  0  0  3  0  0  0  0  0  0
   52.3490   16.3290   -3.0750 C   0  0  0  0  0  3  0  0  0  0  0  0
   48.6890   15.9830   -4.1890 C   0  0  0  0  0  0  0  0  0  0  0  0
   48.1190   14.6990   -4.3830 C   0  0  0  0  0  3  0  0  0  0  0  0
   46.7360   14.5080   -4.3550 C   0  0  0  0  0  3  0  0  0  0  0  0
   45.8800   15.5830   -4.1370 C   0  0  0  0  0  3  0  0  0  0  0  0
   46.4050   16.8610   -3.9430 C   0  0  0  0  0  0  0  0  0  0  0  0
   47.7920   17.0590   -3.9690 C   0  0  0  0  0  3  0  0  0  0  0  0
   45.3000   18.2510   -3.6770 S   0  0  0  0  0  0  0  0  0  0  0  0
   45.7390   19.3740   -4.6290 O   0  0  0  0  0  0  0  0  0  0  0  0
   43.4880   18.1730   -3.7200 C   0  0  0  0  0  1  0  0  0  0  0  0
   45.7040   18.9110   -2.3500 O   0  0  0  0  0  0  0  0  0  0  0  0
   56.1600   18.3500   -5.1700 C   0  0  2  0  0  3  0  0  0  0  0  0
   56.1490   19.5130   -6.1580 C   0  0  0  0  0  0  0  0  0  0  0  0
   57.0290   20.6130   -6.1270 C   0  0  0  0  0  0  0  0  0  0  0  0
   58.1190   20.9240   -5.1460 C   0  0  0  0  0  1  0  0  0  0  0  0
   56.6740   21.6330   -7.4170 S   0  0  0  0  0  0  0  0  0  0  0  0
   55.4250   20.7080   -8.0400 C   0  0  0  0  0  0  0  0  0  0  0  0
   54.6200   21.0390   -9.2510 C   0  0  0  0  0  1  0  0  0  0  0  0
   55.2600   19.5810   -7.2510 C   0  0  0  0  0  3  0  0  0  0  0  0
   56.6110   17.0230   -5.8270 C   0  0  0  0  0  2  0  0  0  0  0  0
   58.1230   16.9420   -6.1380 C   0  0  0  0  0  2  0  0  0  0  0  0
   58.5530   17.5000   -7.5080 C   0  0  0  0  0  2  0  0  0  0  0  0
   57.6170   17.0920   -8.6440 C   0  0  0  0  0  1  0  0  0  0  0  0
  1 11  1  0  0  0  0
  1  2  1  0  0  0  0
  2  3  2  0  0  0  0
  2  5  1  0  0  0  0
  4  2  2  0  0  0  0
  5  6  2  0  0  0  0
  5 10  1  0  0  0  0
  6  7  1  0  0  0  0
  7  9  1  0  0  0  0
  7  8  1  0  0  0  0
 10  9  2  0  0  0  0
 12 11  1  0  0  0  0
 12 18  1  0  0  0  0
 13 15  1  0  0  0  0
 13 12  2  0  0  0  0
 14 13  1  0  0  0  0
 15 16  2  0  0  0  0
 16 19  1  0  0  0  0
 16 17  1  0  0  0  0
 18 17  2  0  0  0  0
 19 24  1  0  0  0  0
 20 21  1  0  0  0  0
 20 19  2  0  0  0  0
 21 22  2  0  0  0  0
 22 23  1  0  0  0  0
 23 25  1  0  0  0  0
 24 23  2  0  0  0  0
 25 28  2  0  0  0  0
 26 25  2  0  0  0  0
 27 25  1  0  0  0  0
 29 37  1  6  0  0  0
 29  1  1  0  0  0  0
 30 31  2  0  0  0  0
 30 29  1  0  0  0  0
 31 32  1  0  0  0  0
 33 31  1  0  0  0  0
 34 33  1  0  0  0  0
 34 36  2  0  0  0  0
 35 34  1  0  0  0  0
 36 30  1  0  0  0  0
 38 37  1  0  0  0  0
 39 38  1  0  0  0  0
 40 39  1  0  0  0  0
M  END
>  <POSE>
4

>  <SCORE>
-7.495

>  <RMSD_LB_BP>
1.947

>  <RMSD_UB_BP>
3.064

$$$$
/content/4EXS_VS/DOCKING/CLC-0000189/CLC-0000189_output.pdbqt
 OpenBabel03062504413D

 40 43  0  0  1  0  0  0  0  0999 V2000
   55.0850   17.6530   -2.8150 N   0  0  0  0  0  0  0  0  0  0  0  0
   56.1470   16.5990   -1.8170 S   0  0  0  0  0  0  0  0  0  0  0  0
   55.6530   16.8060   -0.3770 O   0  0  0  0  0  0  0  0  0  0  0  0
   57.5130   17.2910   -1.7320 O   0  0  0  0  0  0  0  0  0  0  0  0
   56.2830   14.8450   -2.1680 C   0  0  0  0  0  0  0  0  0  0  0  0
   57.4370   14.1850   -2.5200 C   0  0  0  0  0  3  0  0  0  0  0  0
   57.1230   12.8920   -2.6990 N   0  0  0  0  0  0  0  0  0  0  0  0
   58.0220   11.8100   -3.0790 C   0  0  0  0  0  1  0  0  0  0  0  0
   55.8020   12.7870   -2.4560 C   0  0  0  0  0  3  0  0  0  0  0  0
   55.2540   13.9740   -2.1260 N   0  0  0  0  0  0  0  0  0  0  0  0
   54.7250   16.9760   -4.0820 C   0  0  0  0  0  2  0  0  0  0  0  0
   53.2290   16.7450   -4.1630 C   0  0  0  0  0  0  0  0  0  0  0  0
   52.5230   16.6350   -5.3820 C   0  0  0  0  0  0  0  0  0  0  0  0
   53.2180   16.7500   -6.7130 C   0  0  0  0  0  1  0  0  0  0  0  0
   51.1320   16.4150   -5.3590 C   0  0  0  0  0  3  0  0  0  0  0  0
   50.4090   16.3040   -4.1480 C   0  0  0  0  0  0  0  0  0  0  0  0
   51.1440   16.4290   -2.9480 C   0  0  0  0  0  3  0  0  0  0  0  0
   52.5210   16.6430   -2.9590 C   0  0  0  0  0  3  0  0  0  0  0  0
   48.9110   16.0600   -4.1340 C   0  0  0  0  0  0  0  0  0  0  0  0
   48.3700   14.7670   -4.3490 C   0  0  0  0  0  3  0  0  0  0  0  0
   46.9900   14.5470   -4.3400 C   0  0  0  0  0  3  0  0  0  0  0  0
   46.1100   15.6010   -4.1200 C   0  0  0  0  0  3  0  0  0  0  0  0
   46.6060   16.8880   -3.9040 C   0  0  0  0  0  0  0  0  0  0  0  0
   47.9890   17.1150   -3.9120 C   0  0  0  0  0  3  0  0  0  0  0  0
   45.4690   18.2510   -3.6350 S   0  0  0  0  0  0  0  0  0  0  0  0
   45.9110   19.4030   -4.5500 O   0  0  0  0  0  0  0  0  0  0  0  0
   43.6610   18.1420   -3.7230 C   0  0  0  0  0  1  0  0  0  0  0  0
   45.8290   18.8880   -2.2830 O   0  0  0  0  0  0  0  0  0  0  0  0
   55.5260   19.0630   -3.0330 C   0  0  2  0  0  3  0  0  0  0  0  0
   54.6420   20.1010   -2.3470 C   0  0  0  0  0  0  0  0  0  0  0  0
   54.4420   21.4200   -2.7980 C   0  0  0  0  0  0  0  0  0  0  0  0
   55.0410   22.1160   -3.9830 C   0  0  0  0  0  1  0  0  0  0  0  0
   53.3750   22.1980   -1.7540 S   0  0  0  0  0  0  0  0  0  0  0  0
   53.1380   20.8920   -0.7340 C   0  0  0  0  0  0  0  0  0  0  0  0
   52.2590   20.8800    0.4710 C   0  0  0  0  0  1  0  0  0  0  0  0
   53.8900   19.8200   -1.1880 C   0  0  0  0  0  3  0  0  0  0  0  0
   55.7400   19.3720   -4.5360 C   0  0  0  0  0  2  0  0  0  0  0  0
   57.2210   19.4380   -4.9730 C   0  0  0  0  0  2  0  0  0  0  0  0
   58.1520   20.2530   -4.0550 C   0  0  0  0  0  2  0  0  0  0  0  0
   59.4120   19.4910   -3.6480 C   0  0  0  0  0  1  0  0  0  0  0  0
  1  2  1  0  0  0  0
  2  4  2  0  0  0  0
  2  3  2  0  0  0  0
  5 10  1  0  0  0  0
  5  2  1  0  0  0  0
  6  5  2  0  0  0  0
  7  6  1  0  0  0  0
  7  9  1  0  0  0  0
  8  7  1  0  0  0  0
  9 10  2  0  0  0  0
 11  1  1  0  0  0  0
 12 11  1  0  0  0  0
 12 18  1  0  0  0  0
 13 15  1  0  0  0  0
 13 12  2  0  0  0  0
 14 13  1  0  0  0  0
 15 16  2  0  0  0  0
 16 19  1  0  0  0  0
 16 17  1  0  0  0  0
 18 17  2  0  0  0  0
 19 24  1  0  0  0  0
 20 21  1  0  0  0  0
 20 19  2  0  0  0  0
 21 22  2  0  0  0  0
 22 23  1  0  0  0  0
 23 25  1  0  0  0  0
 24 23  2  0  0  0  0
 25 28  2  0  0  0  0
 26 25  2  0  0  0  0
 27 25  1  0  0  0  0
 29 37  1  6  0  0  0
 29  1  1  0  0  0  0
 29 30  1  0  0  0  0
 30 36  1  0  0  0  0
 31 30  2  0  0  0  0
 31 33  1  0  0  0  0
 32 31  1  0  0  0  0
 33 34  1  0  0  0  0
 34 35  1  0  0  0  0
 36 34  2  0  0  0  0
 38 37  1  0  0  0  0
 38 39  1  0  0  0  0
 39 40  1  0  0  0  0
M  END
>  <POSE>
5

>  <SCORE>
-7.427

>  <RMSD_LB_BP>
2.211

>  <RMSD_UB_BP>
4.958

$$$$
/content/4EXS_VS/DOCKING/CLC-0000189/CLC-0000189_output.pdbqt
 OpenBabel03062504413D

 40 43  0  0  1  0  0  0  0  0999 V2000
   54.5230   18.1200   -4.3220 N   0  0  0  0  0  0  0  0  0  0  0  0
   54.4730   18.9950   -2.7510 S   0  0  0  0  0  0  0  0  0  0  0  0
   53.0160   19.4640   -2.6160 O   0  0  0  0  0  0  0  0  0  0  0  0
   55.1690   20.3450   -2.9690 O   0  0  0  0  0  0  0  0  0  0  0  0
   54.9950   18.1860   -1.2370 C   0  0  0  0  0  0  0  0  0  0  0  0
   55.5030   16.9110   -1.1440 C   0  0  0  0  0  3  0  0  0  0  0  0
   55.7690   16.6780    0.1510 N   0  0  0  0  0  0  0  0  0  0  0  0
   56.3200   15.4610    0.7340 C   0  0  0  0  0  1  0  0  0  0  0  0
   55.4230   17.7980    0.8160 C   0  0  0  0  0  3  0  0  0  0  0  0
   54.9420   18.7470   -0.0120 N   0  0  0  0  0  0  0  0  0  0  0  0
   54.1370   16.7010   -4.1380 C   0  0  0  0  0  2  0  0  0  0  0  0
   52.6340   16.5350   -4.2350 C   0  0  0  0  0  0  0  0  0  0  0  0
   51.9140   16.6500   -5.4460 C   0  0  0  0  0  0  0  0  0  0  0  0
   52.6030   16.9590   -6.7490 C   0  0  0  0  0  1  0  0  0  0  0  0
   50.5170   16.4750   -5.4420 C   0  0  0  0  0  3  0  0  0  0  0  0
   49.8000   16.1890   -4.2550 C   0  0  0  0  0  0  0  0  0  0  0  0
   50.5490   16.0920   -3.0610 C   0  0  0  0  0  3  0  0  0  0  0  0
   51.9320   16.2600   -3.0550 C   0  0  0  0  0  3  0  0  0  0  0  0
   48.2950   15.9950   -4.2620 C   0  0  0  0  0  0  0  0  0  0  0  0
   47.7130   14.7320   -4.5390 C   0  0  0  0  0  3  0  0  0  0  0  0
   46.3270   14.5580   -4.5470 C   0  0  0  0  0  3  0  0  0  0  0  0
   45.4810   15.6300   -4.2850 C   0  0  0  0  0  3  0  0  0  0  0  0
   46.0170   16.8880   -4.0090 C   0  0  0  0  0  0  0  0  0  0  0  0
   47.4070   17.0690   -3.9980 C   0  0  0  0  0  3  0  0  0  0  0  0
   44.9240   18.2760   -3.6850 S   0  0  0  0  0  0  0  0  0  0  0  0
   45.3190   19.4050   -4.6480 O   0  0  0  0  0  0  0  0  0  0  0  0
   43.1120   18.1960   -3.6460 C   0  0  0  0  0  1  0  0  0  0  0  0
   45.3870   18.9280   -2.3730 O   0  0  0  0  0  0  0  0  0  0  0  0
   55.7540   18.2670   -5.1530 C   0  0  2  0  0  3  0  0  0  0  0  0
   57.0200   17.7420   -4.4810 C   0  0  0  0  0  0  0  0  0  0  0  0
   57.5780   16.4660   -4.6900 C   0  0  0  0  0  0  0  0  0  0  0  0
   57.0790   15.3440   -5.5490 C   0  0  0  0  0  1  0  0  0  0  0  0
   58.9810   16.3260   -3.7690 S   0  0  0  0  0  0  0  0  0  0  0  0
   58.9160   17.8640   -3.1100 C   0  0  0  0  0  0  0  0  0  0  0  0
   59.9060   18.4410   -2.1540 C   0  0  0  0  0  1  0  0  0  0  0  0
   57.7950   18.5180   -3.5960 C   0  0  0  0  0  3  0  0  0  0  0  0
   55.9230   19.7140   -5.6780 C   0  0  0  0  0  2  0  0  0  0  0  0
   56.8840   19.8510   -6.8810 C   0  0  0  0  0  2  0  0  0  0  0  0
   56.4000   19.2160   -8.1980 C   0  0  0  0  0  2  0  0  0  0  0  0
   54.9240   19.4830   -8.4870 C   0  0  0  0  0  1  0  0  0  0  0  0
  1 11  1  0  0  0  0
  1  2  1  0  0  0  0
  2  3  2  0  0  0  0
  2  5  1  0  0  0  0
  4  2  2  0  0  0  0
  5  6  2  0  0  0  0
  5 10  1  0  0  0  0
  6  7  1  0  0  0  0
  7  8  1  0  0  0  0
  7  9  1  0  0  0  0
 10  9  2  0  0  0  0
 12 11  1  0  0  0  0
 12 18  1  0  0  0  0
 13 15  1  0  0  0  0
 13 12  2  0  0  0  0
 14 13  1  0  0  0  0
 15 16  2  0  0  0  0
 16 17  1  0  0  0  0
 17 18  2  0  0  0  0
 19 16  1  0  0  0  0
 19 24  1  0  0  0  0
 20 19  2  0  0  0  0
 21 20  1  0  0  0  0
 21 22  2  0  0  0  0
 22 23  1  0  0  0  0
 23 24  2  0  0  0  0
 23 25  1  0  0  0  0
 25 27  1  0  0  0  0
 25 28  2  0  0  0  0
 26 25  2  0  0  0  0
 29 37  1  1  0  0  0
 29 30  1  0  0  0  0
 29  1  1  0  0  0  0
 30 36  1  0  0  0  0
 31 30  2  0  0  0  0
 31 33  1  0  0  0  0
 32 31  1  0  0  0  0
 33 34  1  0  0  0  0
 34 35  1  0  0  0  0
 36 34  2  0  0  0  0
 38 37  1  0  0  0  0
 39 38  1  0  0  0  0
 40 39  1  0  0  0  0
M  END
>  <POSE>
6

>  <SCORE>
-7.206

>  <RMSD_LB_BP>
1.923

>  <RMSD_UB_BP>
3.789

$$$$
/content/4EXS_VS/DOCKING/CLC-0000189/CLC-0000189_output.pdbqt
 OpenBabel03062504413D

 40 43  0  0  1  0  0  0  0  0999 V2000
   55.1280   17.2000   -3.9150 N   0  0  0  0  0  0  0  0  0  0  0  0
   55.6110   18.0840   -5.4050 S   0  0  0  0  0  0  0  0  0  0  0  0
   55.3050   19.5580   -5.0950 O   0  0  0  0  0  0  0  0  0  0  0  0
   54.5330   17.8040   -6.4600 O   0  0  0  0  0  0  0  0  0  0  0  0
   57.2740   17.9320   -6.0600 C   0  0  0  0  0  0  0  0  0  0  0  0
   58.2950   18.8340   -5.8720 C   0  0  0  0  0  3  0  0  0  0  0  0
   59.3720   18.3630   -6.5200 N   0  0  0  0  0  0  0  0  0  0  0  0
   60.6900   18.9790   -6.6050 C   0  0  0  0  0  1  0  0  0  0  0  0
   58.9950   17.1990   -7.0840 C   0  0  0  0  0  3  0  0  0  0  0  0
   57.7060   16.9040   -6.8190 N   0  0  0  0  0  0  0  0  0  0  0  0
   54.2830   18.0600   -3.0530 C   0  0  0  0  0  2  0  0  0  0  0  0
   52.8180   17.7010   -3.2050 C   0  0  0  0  0  0  0  0  0  0  0  0
   51.7710   18.4290   -2.5970 C   0  0  0  0  0  0  0  0  0  0  0  0
   52.0410   19.6330   -1.7330 C   0  0  0  0  0  1  0  0  0  0  0  0
   50.4370   18.0250   -2.7980 C   0  0  0  0  0  3  0  0  0  0  0  0
   50.1060   16.9000   -3.5900 C   0  0  0  0  0  0  0  0  0  0  0  0
   51.1770   16.1880   -4.1740 C   0  0  0  0  0  3  0  0  0  0  0  0
   52.5010   16.5820   -3.9840 C   0  0  0  0  0  3  0  0  0  0  0  0
   48.6650   16.4750   -3.8070 C   0  0  0  0  0  0  0  0  0  0  0  0
   48.3330   15.1490   -4.1860 C   0  0  0  0  0  3  0  0  0  0  0  0
   47.0060   14.7630   -4.3880 C   0  0  0  0  0  3  0  0  0  0  0  0
   45.9730   15.6780   -4.2220 C   0  0  0  0  0  3  0  0  0  0  0  0
   46.2600   16.9920   -3.8490 C   0  0  0  0  0  0  0  0  0  0  0  0
   47.5900   17.3860   -3.6440 C   0  0  0  0  0  3  0  0  0  0  0  0
   44.9270   18.1780   -3.6490 S   0  0  0  0  0  0  0  0  0  0  0  0
   45.1660   19.3110   -4.6580 O   0  0  0  0  0  0  0  0  0  0  0  0
   43.1570   17.7810   -3.6780 C   0  0  0  0  0  1  0  0  0  0  0  0
   45.2040   18.9660   -2.3590 O   0  0  0  0  0  0  0  0  0  0  0  0
   56.2040   16.5120   -3.1440 C   0  0  2  0  0  3  0  0  0  0  0  0
   55.9540   15.0220   -2.9270 C   0  0  0  0  0  0  0  0  0  0  0  0
   56.7130   13.9810   -3.4980 C   0  0  0  0  0  0  0  0  0  0  0  0
   57.8740   14.0650   -4.4420 C   0  0  0  0  0  1  0  0  0  0  0  0
   56.1020   12.5060   -2.9660 S   0  0  0  0  0  0  0  0  0  0  0  0
   54.8910   13.1480   -2.0050 C   0  0  0  0  0  0  0  0  0  0  0  0
   53.9160   12.3620   -1.1940 C   0  0  0  0  0  1  0  0  0  0  0  0
   54.9390   14.5310   -2.0800 C   0  0  0  0  0  3  0  0  0  0  0  0
   56.5290   17.2530   -1.8230 C   0  0  0  0  0  2  0  0  0  0  0  0
   57.9520   16.9970   -1.2770 C   0  0  0  0  0  2  0  0  0  0  0  0
   58.0290   16.4890    0.1750 C   0  0  0  0  0  2  0  0  0  0  0  0
   57.8090   14.9820    0.2970 C   0  0  0  0  0  1  0  0  0  0  0  0
  1 29  1  0  0  0  0
  1 11  1  0  0  0  0
  2  3  2  0  0  0  0
  2  1  1  0  0  0  0
  4  2  2  0  0  0  0
  5  6  2  0  0  0  0
  5  2  1  0  0  0  0
  7  6  1  0  0  0  0
  8  7  1  0  0  0  0
  9 10  2  0  0  0  0
  9  7  1  0  0  0  0
 10  5  1  0  0  0  0
 12 11  1  0  0  0  0
 12 13  1  0  0  0  0
 13 14  1  0  0  0  0
 15 13  2  0  0  0  0
 16 15  1  0  0  0  0
 17 18  1  0  0  0  0
 17 16  2  0  0  0  0
 18 12  2  0  0  0  0
 19 24  1  0  0  0  0
 19 16  1  0  0  0  0
 20 19  2  0  0  0  0
 21 22  2  0  0  0  0
 21 20  1  0  0  0  0
 22 23  1  0  0  0  0
 23 25  1  0  0  0  0
 23 24  2  0  0  0  0
 25 28  2  0  0  0  0
 26 25  2  0  0  0  0
 27 25  1  0  0  0  0
 29 30  1  0  0  0  0
 29 37  1  1  0  0  0
 30 36  1  0  0  0  0
 31 33  1  0  0  0  0
 31 30  2  0  0  0  0
 32 31  1  0  0  0  0
 33 34  1  0  0  0  0
 34 35  1  0  0  0  0
 36 34  2  0  0  0  0
 37 38  1  0  0  0  0
 38 39  1  0  0  0  0
 39 40  1  0  0  0  0
M  END
>  <POSE>
7

>  <SCORE>
-7.134

>  <RMSD_LB_BP>
2.218

>  <RMSD_UB_BP>
4.637

$$$$
/content/4EXS_VS/DOCKING/CLC-0000189/CLC-0000189_output.pdbqt
 OpenBabel03062504413D

 40 43  0  0  1  0  0  0  0  0999 V2000
   54.0980   17.8930   -3.7880 N   0  0  0  0  0  0  0  0  0  0  0  0
   54.7480   19.5200   -3.3840 S   0  0  0  0  0  0  0  0  0  0  0  0
   55.5320   19.3100   -2.0790 O   0  0  0  0  0  0  0  0  0  0  0  0
   53.5720   20.3520   -2.8560 O   0  0  0  0  0  0  0  0  0  0  0  0
   55.7570   20.4210   -4.5620 C   0  0  0  0  0  0  0  0  0  0  0  0
   56.9910   20.9710   -4.3050 C   0  0  0  0  0  3  0  0  0  0  0  0
   57.4130   21.5580   -5.4370 N   0  0  0  0  0  0  0  0  0  0  0  0
   58.6670   22.2700   -5.6460 C   0  0  0  0  0  1  0  0  0  0  0  0
   56.4430   21.3600   -6.3500 C   0  0  0  0  0  3  0  0  0  0  0  0
   55.4070   20.6620   -5.8420 N   0  0  0  0  0  0  0  0  0  0  0  0
   53.4240   17.2970   -2.6110 C   0  0  0  0  0  2  0  0  0  0  0  0
   52.0130   16.8670   -2.9590 C   0  0  0  0  0  0  0  0  0  0  0  0
   51.5520   15.5370   -2.8380 C   0  0  0  0  0  0  0  0  0  0  0  0
   52.4480   14.4290   -2.3500 C   0  0  0  0  0  1  0  0  0  0  0  0
   50.2210   15.2300   -3.1810 C   0  0  0  0  0  3  0  0  0  0  0  0
   49.3210   16.2160   -3.6530 C   0  0  0  0  0  0  0  0  0  0  0  0
   49.8180   17.5330   -3.7730 C   0  0  0  0  0  3  0  0  0  0  0  0
   51.1320   17.8470   -3.4330 C   0  0  0  0  0  3  0  0  0  0  0  0
   47.8870   15.8770   -4.0140 C   0  0  0  0  0  0  0  0  0  0  0  0
   47.5720   14.7530   -4.8190 C   0  0  0  0  0  3  0  0  0  0  0  0
   46.2510   14.4460   -5.1530 C   0  0  0  0  0  3  0  0  0  0  0  0
   45.2060   15.2450   -4.7010 C   0  0  0  0  0  3  0  0  0  0  0  0
   45.4770   16.3600   -3.9060 C   0  0  0  0  0  0  0  0  0  0  0  0
   46.8010   16.6730   -3.5670 C   0  0  0  0  0  3  0  0  0  0  0  0
   44.1290   17.4000   -3.3350 S   0  0  0  0  0  0  0  0  0  0  0  0
   44.7490   18.5420   -2.5140 O   0  0  0  0  0  0  0  0  0  0  0  0
   42.8400   18.1190   -4.3890 C   0  0  0  0  0  1  0  0  0  0  0  0
   43.4290   16.6540   -2.1890 O   0  0  0  0  0  0  0  0  0  0  0  0
   55.0220   16.9300   -4.4560 C   0  0  2  0  0  3  0  0  0  0  0  0
   56.4030   16.8470   -3.8110 C   0  0  0  0  0  0  0  0  0  0  0  0
   56.7110   16.1150   -2.6480 C   0  0  0  0  0  0  0  0  0  0  0  0
   55.8040   15.3030   -1.7730 C   0  0  0  0  0  1  0  0  0  0  0  0
   58.3520   16.2860   -2.3140 S   0  0  0  0  0  0  0  0  0  0  0  0
   58.7010   17.2650   -3.6270 C   0  0  0  0  0  0  0  0  0  0  0  0
   60.0450   17.8180   -3.9640 C   0  0  0  0  0  1  0  0  0  0  0  0
   57.5410   17.4790   -4.3530 C   0  0  0  0  0  3  0  0  0  0  0  0
   55.1000   17.1750   -5.9830 C   0  0  0  0  0  2  0  0  0  0  0  0
   53.8320   16.7630   -6.7650 C   0  0  0  0  0  2  0  0  0  0  0  0
   53.6620   17.4120   -8.1520 C   0  0  0  0  0  2  0  0  0  0  0  0
   54.9920   17.7630   -8.8180 C   0  0  0  0  0  1  0  0  0  0  0  0
  1  2  1  0  0  0  0
  1 11  1  0  0  0  0
  2  4  2  0  0  0  0
  2  3  2  0  0  0  0
  5  6  2  0  0  0  0
  5  2  1  0  0  0  0
  7  6  1  0  0  0  0
  8  7  1  0  0  0  0
  9 10  2  0  0  0  0
  9  7  1  0  0  0  0
 10  5  1  0  0  0  0
 12 13  1  0  0  0  0
 12 11  1  0  0  0  0
 13 14  1  0  0  0  0
 15 13  2  0  0  0  0
 16 15  1  0  0  0  0
 17 16  2  0  0  0  0
 17 18  1  0  0  0  0
 18 12  2  0  0  0  0
 19 16  1  0  0  0  0
 19 24  1  0  0  0  0
 20 19  2  0  0  0  0
 21 20  1  0  0  0  0
 21 22  2  0  0  0  0
 22 23  1  0  0  0  0
 23 24  2  0  0  0  0
 23 25  1  0  0  0  0
 25 26  2  0  0  0  0
 25 28  2  0  0  0  0
 27 25  1  0  0  0  0
 29 37  1  6  0  0  0
 29 30  1  0  0  0  0
 29  1  1  0  0  0  0
 30 31  2  0  0  0  0
 31 33  1  0  0  0  0
 31 32  1  0  0  0  0
 34 33  1  0  0  0  0
 35 34  1  0  0  0  0
 36 30  1  0  0  0  0
 36 34  2  0  0  0  0
 38 37  1  0  0  0  0
 39 38  1  0  0  0  0
 40 39  1  0  0  0  0
M  END
>  <POSE>
8

>  <SCORE>
-6.966

>  <RMSD_LB_BP>
2.285

>  <RMSD_UB_BP>
4.178

$$$$
/content/4EXS_VS/DOCKING/CLC-0000189/CLC-0000189_output.pdbqt
 OpenBabel03062504413D

 40 43  0  0  1  0  0  0  0  0999 V2000
   54.7250   19.0100   -4.2550 N   0  0  0  0  0  0  0  0  0  0  0  0
   54.7590   20.4390   -3.1640 S   0  0  0  0  0  0  0  0  0  0  0  0
   54.1740   21.5830   -4.0070 O   0  0  0  0  0  0  0  0  0  0  0  0
   56.2210   20.8960   -3.0720 O   0  0  0  0  0  0  0  0  0  0  0  0
   53.9500   20.3870   -1.5630 C   0  0  0  0  0  0  0  0  0  0  0  0
   52.7460   20.9760   -1.2550 C   0  0  0  0  0  3  0  0  0  0  0  0
   52.4880   20.7110    0.0360 N   0  0  0  0  0  0  0  0  0  0  0  0
   51.3240   21.1290    0.8070 C   0  0  0  0  0  1  0  0  0  0  0  0
   53.5240   19.9770    0.4860 C   0  0  0  0  0  3  0  0  0  0  0  0
   54.4430   19.7600   -0.4760 N   0  0  0  0  0  0  0  0  0  0  0  0
   54.3890   17.7840   -3.4940 C   0  0  0  0  0  2  0  0  0  0  0  0
   52.9420   17.3930   -3.7150 C   0  0  0  0  0  0  0  0  0  0  0  0
   52.4920   16.6840   -4.8520 C   0  0  0  0  0  0  0  0  0  0  0  0
   53.4350   16.2650   -5.9490 C   0  0  0  0  0  1  0  0  0  0  0  0
   51.1270   16.3590   -4.9710 C   0  0  0  0  0  3  0  0  0  0  0  0
   50.1790   16.7250   -3.9850 C   0  0  0  0  0  0  0  0  0  0  0  0
   50.6610   17.4420   -2.8670 C   0  0  0  0  0  3  0  0  0  0  0  0
   52.0110   17.7660   -2.7380 C   0  0  0  0  0  3  0  0  0  0  0  0
   48.7110   16.3640   -4.1180 C   0  0  0  0  0  0  0  0  0  0  0  0
   48.3020   15.0760   -4.5480 C   0  0  0  0  0  3  0  0  0  0  0  0
   46.9500   14.7480   -4.6730 C   0  0  0  0  0  3  0  0  0  0  0  0
   45.9670   15.6880   -4.3790 C   0  0  0  0  0  3  0  0  0  0  0  0
   46.3320   16.9660   -3.9540 C   0  0  0  0  0  0  0  0  0  0  0  0
   47.6870   17.3010   -3.8260 C   0  0  0  0  0  3  0  0  0  0  0  0
   45.0630   18.1840   -3.5890 S   0  0  0  0  0  0  0  0  0  0  0  0
   45.2030   19.3130   -4.6210 O   0  0  0  0  0  0  0  0  0  0  0  0
   43.2940   17.8300   -3.3980 C   0  0  0  0  0  1  0  0  0  0  0  0
   45.5180   18.9600   -2.3440 O   0  0  0  0  0  0  0  0  0  0  0  0
   55.8930   18.8100   -5.1620 C   0  0  2  0  0  3  0  0  0  0  0  0
   57.0640   18.0770   -4.5110 C   0  0  0  0  0  0  0  0  0  0  0  0
   57.5520   16.8160   -4.9080 C   0  0  0  0  0  0  0  0  0  0  0  0
   57.0520   15.9050   -5.9880 C   0  0  0  0  0  1  0  0  0  0  0  0
   58.8620   16.4080   -3.9340 S   0  0  0  0  0  0  0  0  0  0  0  0
   58.8460   17.8070   -3.0140 C   0  0  0  0  0  0  0  0  0  0  0  0
   59.7890   18.1270   -1.9040 C   0  0  0  0  0  1  0  0  0  0  0  0
   57.8130   18.6220   -3.4490 C   0  0  0  0  0  3  0  0  0  0  0  0
   56.3300   20.1330   -5.8380 C   0  0  0  0  0  2  0  0  0  0  0  0
   57.5890   20.0140   -6.7270 C   0  0  0  0  0  2  0  0  0  0  0  0
   58.6310   21.1370   -6.5640 C   0  0  0  0  0  2  0  0  0  0  0  0
   58.5280   21.8610   -5.2230 C   0  0  0  0  0  1  0  0  0  0  0  0
  1 11  1  0  0  0  0
  1  2  1  0  0  0  0
  2  4  2  0  0  0  0
  2  5  1  0  0  0  0
  3  2  2  0  0  0  0
  5  6  2  0  0  0  0
  5 10  1  0  0  0  0
  6  7  1  0  0  0  0
  7  9  1  0  0  0  0
  7  8  1  0  0  0  0
 10  9  2  0  0  0  0
 12 11  1  0  0  0  0
 12 18  1  0  0  0  0
 13 12  2  0  0  0  0
 14 13  1  0  0  0  0
 15 13  1  0  0  0  0
 15 16  2  0  0  0  0
 16 17  1  0  0  0  0
 17 18  2  0  0  0  0
 19 16  1  0  0  0  0
 19 24  1  0  0  0  0
 20 19  2  0  0  0  0
 21 20  1  0  0  0  0
 21 22  2  0  0  0  0
 22 23  1  0  0  0  0
 23 24  2  0  0  0  0
 23 25  1  0  0  0  0
 25 27  1  0  0  0  0
 25 28  2  0  0  0  0
 26 25  2  0  0  0  0
 29 37  1  1  0  0  0
 29 30  1  0  0  0  0
 29  1  1  0  0  0  0
 30 36  1  0  0  0  0
 31 30  2  0  0  0  0
 31 33  1  0  0  0  0
 32 31  1  0  0  0  0
 33 34  1  0  0  0  0
 34 35  1  0  0  0  0
 36 34  2  0  0  0  0
 38 39  1  0  0  0  0
 38 37  1  0  0  0  0
 39 40  1  0  0  0  0
M  END
>  <POSE>
9

>  <SCORE>
-6.811

>  <RMSD_LB_BP>
2.089

>  <RMSD_UB_BP>
3.477

$$$$
